<?xml version="1.0" ?>
<edges>
    <edge id="e0" from="0" to="1" type="avenue" numLanes="3" speed="13.89" shape="-8212856.7,4523549.699999999 -8212675.77,4523549.699999999"/>
    <edge id="e1" from="0" to="11" type="street" numLanes="2" speed="11.11" shape="-8212856.7,4523549.699999999 -8212856.7,4523646.2700000005"/>
    <edge id="e2" from="1" to="2" type="avenue" numLanes="3" speed="13.89" shape="-8212675.77,4523549.699999999 -8212494.84,4523549.699999999"/>
    <edge id="e3" from="1" to="12" type="street" numLanes="2" speed="11.11" shape="-8212675.77,4523549.699999999 -8212675.77,4523646.2700000005"/>
    <edge id="e4" from="2" to="3" type="avenue" numLanes="3" speed="13.89" shape="-8212494.84,4523549.699999999 -8212313.909999999,4523549.699999999"/>
    <edge id="e5" from="2" to="13" type="street" numLanes="2" speed="11.11" shape="-8212494.84,4523549.699999999 -8212494.84,4523646.2700000005"/>
    <edge id="e6" from="3" to="4" type="avenue" numLanes="3" speed="13.89" shape="-8212313.909999999,4523549.699999999 -8212132.98,4523549.699999999"/>
    <edge id="e7" from="3" to="14" type="street" numLanes="2" speed="11.11" shape="-8212313.909999999,4523549.699999999 -8212313.909999999,4523646.2700000005"/>
    <edge id="e8" from="4" to="5" type="avenue" numLanes="3" speed="13.89" shape="-8212132.98,4523549.699999999 -8211952.05,4523549.699999999"/>
    <edge id="e9" from="4" to="15" type="street" numLanes="2" speed="11.11" shape="-8212132.98,4523549.699999999 -8212132.98,4523646.2700000005"/>
    <edge id="e10" from="5" to="6" type="avenue" numLanes="3" speed="13.89" shape="-8211952.05,4523549.699999999 -8211771.119999999,4523549.699999999"/>
    <edge id="e11" from="5" to="16" type="street" numLanes="2" speed="11.11" shape="-8211952.05,4523549.699999999 -8211952.05,4523646.2700000005"/>
    <edge id="e12" from="6" to="7" type="avenue" numLanes="3" speed="13.89" shape="-8211771.119999999,4523549.699999999 -8211590.19,4523549.699999999"/>
    <edge id="e13" from="6" to="17" type="street" numLanes="2" speed="11.11" shape="-8211771.119999999,4523549.699999999 -8211771.119999999,4523646.2700000005"/>
    <edge id="e14" from="7" to="8" type="avenue" numLanes="3" speed="13.89" shape="-8211590.19,4523549.699999999 -8211409.26,4523549.699999999"/>
    <edge id="e15" from="7" to="18" type="street" numLanes="2" speed="11.11" shape="-8211590.19,4523549.699999999 -8211590.19,4523646.2700000005"/>
    <edge id="e16" from="8" to="9" type="avenue" numLanes="3" speed="13.89" shape="-8211409.26,4523549.699999999 -8211228.33,4523549.699999999"/>
    <edge id="e17" from="8" to="19" type="street" numLanes="2" speed="11.11" shape="-8211409.26,4523549.699999999 -8211409.26,4523646.2700000005"/>
    <edge id="e18" from="9" to="10" type="avenue" numLanes="3" speed="13.89" shape="-8211228.33,4523549.699999999 -8211047.399999999,4523549.699999999"/>
    <edge id="e19" from="9" to="20" type="street" numLanes="2" speed="11.11" shape="-8211228.33,4523549.699999999 -8211228.33,4523646.2700000005"/>
    <edge id="e20" from="10" to="21" type="street" numLanes="2" speed="11.11" shape="-8211047.399999999,4523549.699999999 -8211047.399999999,4523646.2700000005"/>
    <edge id="e21" from="11" to="12" type="street" numLanes="2" speed="13.89" shape="-8212856.7,4523646.2700000005 -8212675.77,4523646.2700000005"/>
    <edge id="e22" from="11" to="22" type="street" numLanes="2" speed="11.11" shape="-8212856.7,4523646.2700000005 -8212856.7,4523742.84"/>
    <edge id="e23" from="12" to="13" type="street" numLanes="2" speed="13.89" shape="-8212675.77,4523646.2700000005 -8212494.84,4523646.2700000005"/>
    <edge id="e24" from="12" to="23" type="street" numLanes="2" speed="11.11" shape="-8212675.77,4523646.2700000005 -8212675.77,4523742.84"/>
    <edge id="e25" from="13" to="14" type="street" numLanes="2" speed="13.89" shape="-8212494.84,4523646.2700000005 -8212313.909999999,4523646.2700000005"/>
    <edge id="e26" from="13" to="24" type="street" numLanes="2" speed="11.11" shape="-8212494.84,4523646.2700000005 -8212494.84,4523742.84"/>
    <edge id="e27" from="14" to="15" type="street" numLanes="2" speed="13.89" shape="-8212313.909999999,4523646.2700000005 -8212132.98,4523646.2700000005"/>
    <edge id="e28" from="14" to="25" type="street" numLanes="2" speed="11.11" shape="-8212313.909999999,4523646.2700000005 -8212313.909999999,4523742.84"/>
    <edge id="e29" from="15" to="16" type="street" numLanes="2" speed="13.89" shape="-8212132.98,4523646.2700000005 -8211952.05,4523646.2700000005"/>
    <edge id="e30" from="15" to="26" type="street" numLanes="2" speed="11.11" shape="-8212132.98,4523646.2700000005 -8212132.98,4523742.84"/>
    <edge id="e31" from="16" to="17" type="street" numLanes="2" speed="13.89" shape="-8211952.05,4523646.2700000005 -8211771.119999999,4523646.2700000005"/>
    <edge id="e32" from="16" to="27" type="street" numLanes="2" speed="11.11" shape="-8211952.05,4523646.2700000005 -8211952.05,4523742.84"/>
    <edge id="e33" from="17" to="18" type="street" numLanes="2" speed="13.89" shape="-8211771.119999999,4523646.2700000005 -8211590.19,4523646.2700000005"/>
    <edge id="e34" from="17" to="28" type="street" numLanes="2" speed="11.11" shape="-8211771.119999999,4523646.2700000005 -8211771.119999999,4523742.84"/>
    <edge id="e35" from="18" to="19" type="street" numLanes="2" speed="13.89" shape="-8211590.19,4523646.2700000005 -8211409.26,4523646.2700000005"/>
    <edge id="e36" from="18" to="29" type="street" numLanes="2" speed="11.11" shape="-8211590.19,4523646.2700000005 -8211590.19,4523742.84"/>
    <edge id="e37" from="19" to="20" type="street" numLanes="2" speed="13.89" shape="-8211409.26,4523646.2700000005 -8211228.33,4523646.2700000005"/>
    <edge id="e38" from="19" to="30" type="street" numLanes="2" speed="11.11" shape="-8211409.26,4523646.2700000005 -8211409.26,4523742.84"/>
    <edge id="e39" from="20" to="21" type="street" numLanes="2" speed="13.89" shape="-8211228.33,4523646.2700000005 -8211047.399999999,4523646.2700000005"/>
    <edge id="e40" from="20" to="31" type="street" numLanes="2" speed="11.11" shape="-8211228.33,4523646.2700000005 -8211228.33,4523742.84"/>
    <edge id="e41" from="21" to="32" type="street" numLanes="2" speed="11.11" shape="-8211047.399999999,4523646.2700000005 -8211047.399999999,4523742.84"/>
    <edge id="e42" from="22" to="23" type="avenue" numLanes="3" speed="13.89" shape="-8212856.7,4523742.84 -8212675.77,4523742.84"/>
    <edge id="e43" from="22" to="33" type="street" numLanes="2" speed="11.11" shape="-8212856.7,4523742.84 -8212856.7,4523839.41"/>
    <edge id="e44" from="23" to="24" type="avenue" numLanes="3" speed="13.89" shape="-8212675.77,4523742.84 -8212494.84,4523742.84"/>
    <edge id="e45" from="23" to="34" type="street" numLanes="2" speed="11.11" shape="-8212675.77,4523742.84 -8212675.77,4523839.41"/>
    <edge id="e46" from="24" to="25" type="avenue" numLanes="3" speed="13.89" shape="-8212494.84,4523742.84 -8212313.909999999,4523742.84"/>
    <edge id="e47" from="24" to="35" type="street" numLanes="2" speed="11.11" shape="-8212494.84,4523742.84 -8212494.84,4523839.41"/>
    <edge id="e48" from="25" to="26" type="avenue" numLanes="3" speed="13.89" shape="-8212313.909999999,4523742.84 -8212132.98,4523742.84"/>
    <edge id="e49" from="25" to="36" type="street" numLanes="2" speed="11.11" shape="-8212313.909999999,4523742.84 -8212313.909999999,4523839.41"/>
    <edge id="e50" from="26" to="27" type="avenue" numLanes="3" speed="13.89" shape="-8212132.98,4523742.84 -8211952.05,4523742.84"/>
    <edge id="e51" from="26" to="37" type="street" numLanes="2" speed="11.11" shape="-8212132.98,4523742.84 -8212132.98,4523839.41"/>
    <edge id="e52" from="27" to="28" type="avenue" numLanes="3" speed="13.89" shape="-8211952.05,4523742.84 -8211771.119999999,4523742.84"/>
    <edge id="e53" from="27" to="38" type="street" numLanes="2" speed="11.11" shape="-8211952.05,4523742.84 -8211952.05,4523839.41"/>
    <edge id="e54" from="28" to="29" type="avenue" numLanes="3" speed="13.89" shape="-8211771.119999999,4523742.84 -8211590.19,4523742.84"/>
    <edge id="e55" from="28" to="39" type="street" numLanes="2" speed="11.11" shape="-8211771.119999999,4523742.84 -8211771.119999999,4523839.41"/>
    <edge id="e56" from="29" to="30" type="avenue" numLanes="3" speed="13.89" shape="-8211590.19,4523742.84 -8211409.26,4523742.84"/>
    <edge id="e57" from="29" to="40" type="street" numLanes="2" speed="11.11" shape="-8211590.19,4523742.84 -8211590.19,4523839.41"/>
    <edge id="e58" from="30" to="31" type="avenue" numLanes="3" speed="13.89" shape="-8211409.26,4523742.84 -8211228.33,4523742.84"/>
    <edge id="e59" from="30" to="41" type="street" numLanes="2" speed="11.11" shape="-8211409.26,4523742.84 -8211409.26,4523839.41"/>
    <edge id="e60" from="31" to="32" type="avenue" numLanes="3" speed="13.89" shape="-8211228.33,4523742.84 -8211047.399999999,4523742.84"/>
    <edge id="e61" from="31" to="42" type="street" numLanes="2" speed="11.11" shape="-8211228.33,4523742.84 -8211228.33,4523839.41"/>
    <edge id="e62" from="32" to="43" type="street" numLanes="2" speed="11.11" shape="-8211047.399999999,4523742.84 -8211047.399999999,4523839.41"/>
    <edge id="e63" from="33" to="34" type="street" numLanes="2" speed="13.89" shape="-8212856.7,4523839.41 -8212675.77,4523839.41"/>
    <edge id="e64" from="33" to="44" type="street" numLanes="2" speed="11.11" shape="-8212856.7,4523839.41 -8212856.7,4523935.98"/>
    <edge id="e65" from="34" to="35" type="street" numLanes="2" speed="13.89" shape="-8212675.77,4523839.41 -8212494.84,4523839.41"/>
    <edge id="e66" from="34" to="45" type="street" numLanes="2" speed="11.11" shape="-8212675.77,4523839.41 -8212675.77,4523935.98"/>
    <edge id="e67" from="35" to="36" type="street" numLanes="2" speed="13.89" shape="-8212494.84,4523839.41 -8212313.909999999,4523839.41"/>
    <edge id="e68" from="35" to="46" type="street" numLanes="2" speed="11.11" shape="-8212494.84,4523839.41 -8212494.84,4523935.98"/>
    <edge id="e69" from="36" to="37" type="street" numLanes="2" speed="13.89" shape="-8212313.909999999,4523839.41 -8212132.98,4523839.41"/>
    <edge id="e70" from="36" to="47" type="street" numLanes="2" speed="11.11" shape="-8212313.909999999,4523839.41 -8212313.909999999,4523935.98"/>
    <edge id="e71" from="37" to="38" type="street" numLanes="2" speed="13.89" shape="-8212132.98,4523839.41 -8211952.05,4523839.41"/>
    <edge id="e72" from="37" to="48" type="street" numLanes="2" speed="11.11" shape="-8212132.98,4523839.41 -8212132.98,4523935.98"/>
    <edge id="e73" from="38" to="39" type="street" numLanes="2" speed="13.89" shape="-8211952.05,4523839.41 -8211771.119999999,4523839.41"/>
    <edge id="e74" from="38" to="49" type="street" numLanes="2" speed="11.11" shape="-8211952.05,4523839.41 -8211952.05,4523935.98"/>
    <edge id="e75" from="39" to="40" type="street" numLanes="2" speed="13.89" shape="-8211771.119999999,4523839.41 -8211590.19,4523839.41"/>
    <edge id="e76" from="39" to="50" type="street" numLanes="2" speed="11.11" shape="-8211771.119999999,4523839.41 -8211771.119999999,4523935.98"/>
    <edge id="e77" from="40" to="41" type="street" numLanes="2" speed="13.89" shape="-8211590.19,4523839.41 -8211409.26,4523839.41"/>
    <edge id="e78" from="40" to="51" type="street" numLanes="2" speed="11.11" shape="-8211590.19,4523839.41 -8211590.19,4523935.98"/>
    <edge id="e79" from="41" to="42" type="street" numLanes="2" speed="13.89" shape="-8211409.26,4523839.41 -8211228.33,4523839.41"/>
    <edge id="e80" from="41" to="52" type="street" numLanes="2" speed="11.11" shape="-8211409.26,4523839.41 -8211409.26,4523935.98"/>
    <edge id="e81" from="42" to="43" type="street" numLanes="2" speed="13.89" shape="-8211228.33,4523839.41 -8211047.399999999,4523839.41"/>
    <edge id="e82" from="42" to="53" type="street" numLanes="2" speed="11.11" shape="-8211228.33,4523839.41 -8211228.33,4523935.98"/>
    <edge id="e83" from="43" to="54" type="street" numLanes="2" speed="11.11" shape="-8211047.399999999,4523839.41 -8211047.399999999,4523935.98"/>
    <edge id="e84" from="44" to="45" type="avenue" numLanes="3" speed="13.89" shape="-8212856.7,4523935.98 -8212675.77,4523935.98"/>
    <edge id="e85" from="44" to="55" type="street" numLanes="2" speed="11.11" shape="-8212856.7,4523935.98 -8212856.7,4524032.55"/>
    <edge id="e86" from="45" to="46" type="avenue" numLanes="3" speed="13.89" shape="-8212675.77,4523935.98 -8212494.84,4523935.98"/>
    <edge id="e87" from="45" to="56" type="street" numLanes="2" speed="11.11" shape="-8212675.77,4523935.98 -8212675.77,4524032.55"/>
    <edge id="e88" from="46" to="47" type="avenue" numLanes="3" speed="13.89" shape="-8212494.84,4523935.98 -8212313.909999999,4523935.98"/>
    <edge id="e89" from="46" to="57" type="street" numLanes="2" speed="11.11" shape="-8212494.84,4523935.98 -8212494.84,4524032.55"/>
    <edge id="e90" from="47" to="48" type="avenue" numLanes="3" speed="13.89" shape="-8212313.909999999,4523935.98 -8212132.98,4523935.98"/>
    <edge id="e91" from="47" to="58" type="street" numLanes="2" speed="11.11" shape="-8212313.909999999,4523935.98 -8212313.909999999,4524032.55"/>
    <edge id="e92" from="48" to="49" type="avenue" numLanes="3" speed="13.89" shape="-8212132.98,4523935.98 -8211952.05,4523935.98"/>
    <edge id="e93" from="48" to="59" type="street" numLanes="2" speed="11.11" shape="-8212132.98,4523935.98 -8212132.98,4524032.55"/>
    <edge id="e94" from="49" to="50" type="avenue" numLanes="3" speed="13.89" shape="-8211952.05,4523935.98 -8211771.119999999,4523935.98"/>
    <edge id="e95" from="49" to="60" type="street" numLanes="2" speed="11.11" shape="-8211952.05,4523935.98 -8211952.05,4524032.55"/>
    <edge id="e96" from="50" to="51" type="avenue" numLanes="3" speed="13.89" shape="-8211771.119999999,4523935.98 -8211590.19,4523935.98"/>
    <edge id="e97" from="50" to="61" type="street" numLanes="2" speed="11.11" shape="-8211771.119999999,4523935.98 -8211771.119999999,4524032.55"/>
    <edge id="e98" from="51" to="52" type="avenue" numLanes="3" speed="13.89" shape="-8211590.19,4523935.98 -8211409.26,4523935.98"/>
    <edge id="e99" from="51" to="62" type="street" numLanes="2" speed="11.11" shape="-8211590.19,4523935.98 -8211590.19,4524032.55"/>
    <edge id="e100" from="52" to="53" type="avenue" numLanes="3" speed="13.89" shape="-8211409.26,4523935.98 -8211228.33,4523935.98"/>
    <edge id="e101" from="52" to="63" type="street" numLanes="2" speed="11.11" shape="-8211409.26,4523935.98 -8211409.26,4524032.55"/>
    <edge id="e102" from="53" to="54" type="avenue" numLanes="3" speed="13.89" shape="-8211228.33,4523935.98 -8211047.399999999,4523935.98"/>
    <edge id="e103" from="53" to="64" type="street" numLanes="2" speed="11.11" shape="-8211228.33,4523935.98 -8211228.33,4524032.55"/>
    <edge id="e104" from="54" to="65" type="street" numLanes="2" speed="11.11" shape="-8211047.399999999,4523935.98 -8211047.399999999,4524032.55"/>
    <edge id="e105" from="55" to="56" type="street" numLanes="2" speed="13.89" shape="-8212856.7,4524032.55 -8212675.77,4524032.55"/>
    <edge id="e106" from="55" to="66" type="street" numLanes="2" speed="11.11" shape="-8212856.7,4524032.55 -8212856.7,4524129.12"/>
    <edge id="e107" from="56" to="57" type="street" numLanes="2" speed="13.89" shape="-8212675.77,4524032.55 -8212494.84,4524032.55"/>
    <edge id="e108" from="56" to="67" type="street" numLanes="2" speed="11.11" shape="-8212675.77,4524032.55 -8212675.77,4524129.12"/>
    <edge id="e109" from="57" to="58" type="street" numLanes="2" speed="13.89" shape="-8212494.84,4524032.55 -8212313.909999999,4524032.55"/>
    <edge id="e110" from="57" to="68" type="street" numLanes="2" speed="11.11" shape="-8212494.84,4524032.55 -8212494.84,4524129.12"/>
    <edge id="e111" from="58" to="59" type="street" numLanes="2" speed="13.89" shape="-8212313.909999999,4524032.55 -8212132.98,4524032.55"/>
    <edge id="e112" from="58" to="69" type="street" numLanes="2" speed="11.11" shape="-8212313.909999999,4524032.55 -8212313.909999999,4524129.12"/>
    <edge id="e113" from="59" to="60" type="street" numLanes="2" speed="13.89" shape="-8212132.98,4524032.55 -8211952.05,4524032.55"/>
    <edge id="e114" from="59" to="70" type="street" numLanes="2" speed="11.11" shape="-8212132.98,4524032.55 -8212132.98,4524129.12"/>
    <edge id="e115" from="60" to="61" type="street" numLanes="2" speed="13.89" shape="-8211952.05,4524032.55 -8211771.119999999,4524032.55"/>
    <edge id="e116" from="60" to="71" type="street" numLanes="2" speed="11.11" shape="-8211952.05,4524032.55 -8211952.05,4524129.12"/>
    <edge id="e117" from="61" to="62" type="street" numLanes="2" speed="13.89" shape="-8211771.119999999,4524032.55 -8211590.19,4524032.55"/>
    <edge id="e118" from="61" to="72" type="street" numLanes="2" speed="11.11" shape="-8211771.119999999,4524032.55 -8211771.119999999,4524129.12"/>
    <edge id="e119" from="62" to="63" type="street" numLanes="2" speed="13.89" shape="-8211590.19,4524032.55 -8211409.26,4524032.55"/>
    <edge id="e120" from="62" to="73" type="street" numLanes="2" speed="11.11" shape="-8211590.19,4524032.55 -8211590.19,4524129.12"/>
    <edge id="e121" from="63" to="64" type="street" numLanes="2" speed="13.89" shape="-8211409.26,4524032.55 -8211228.33,4524032.55"/>
    <edge id="e122" from="63" to="74" type="street" numLanes="2" speed="11.11" shape="-8211409.26,4524032.55 -8211409.26,4524129.12"/>
    <edge id="e123" from="64" to="65" type="street" numLanes="2" speed="13.89" shape="-8211228.33,4524032.55 -8211047.399999999,4524032.55"/>
    <edge id="e124" from="64" to="75" type="street" numLanes="2" speed="11.11" shape="-8211228.33,4524032.55 -8211228.33,4524129.12"/>
    <edge id="e125" from="65" to="76" type="street" numLanes="2" speed="11.11" shape="-8211047.399999999,4524032.55 -8211047.399999999,4524129.12"/>
    <edge id="e126" from="66" to="67" type="avenue" numLanes="3" speed="13.89" shape="-8212856.7,4524129.12 -8212675.77,4524129.12"/>
    <edge id="e127" from="66" to="77" type="street" numLanes="2" speed="11.11" shape="-8212856.7,4524129.12 -8212856.7,4524225.6899999995"/>
    <edge id="e128" from="67" to="68" type="avenue" numLanes="3" speed="13.89" shape="-8212675.77,4524129.12 -8212494.84,4524129.12"/>
    <edge id="e129" from="67" to="78" type="street" numLanes="2" speed="11.11" shape="-8212675.77,4524129.12 -8212675.77,4524225.6899999995"/>
    <edge id="e130" from="68" to="69" type="avenue" numLanes="3" speed="13.89" shape="-8212494.84,4524129.12 -8212313.909999999,4524129.12"/>
    <edge id="e131" from="68" to="79" type="street" numLanes="2" speed="11.11" shape="-8212494.84,4524129.12 -8212494.84,4524225.6899999995"/>
    <edge id="e132" from="69" to="70" type="avenue" numLanes="3" speed="13.89" shape="-8212313.909999999,4524129.12 -8212132.98,4524129.12"/>
    <edge id="e133" from="69" to="80" type="street" numLanes="2" speed="11.11" shape="-8212313.909999999,4524129.12 -8212313.909999999,4524225.6899999995"/>
    <edge id="e134" from="70" to="71" type="avenue" numLanes="3" speed="13.89" shape="-8212132.98,4524129.12 -8211952.05,4524129.12"/>
    <edge id="e135" from="70" to="81" type="street" numLanes="2" speed="11.11" shape="-8212132.98,4524129.12 -8212132.98,4524225.6899999995"/>
    <edge id="e136" from="71" to="72" type="avenue" numLanes="3" speed="13.89" shape="-8211952.05,4524129.12 -8211771.119999999,4524129.12"/>
    <edge id="e137" from="71" to="82" type="street" numLanes="2" speed="11.11" shape="-8211952.05,4524129.12 -8211952.05,4524225.6899999995"/>
    <edge id="e138" from="72" to="73" type="avenue" numLanes="3" speed="13.89" shape="-8211771.119999999,4524129.12 -8211590.19,4524129.12"/>
    <edge id="e139" from="72" to="83" type="street" numLanes="2" speed="11.11" shape="-8211771.119999999,4524129.12 -8211771.119999999,4524225.6899999995"/>
    <edge id="e140" from="73" to="74" type="avenue" numLanes="3" speed="13.89" shape="-8211590.19,4524129.12 -8211409.26,4524129.12"/>
    <edge id="e141" from="73" to="84" type="street" numLanes="2" speed="11.11" shape="-8211590.19,4524129.12 -8211590.19,4524225.6899999995"/>
    <edge id="e142" from="74" to="75" type="avenue" numLanes="3" speed="13.89" shape="-8211409.26,4524129.12 -8211228.33,4524129.12"/>
    <edge id="e143" from="74" to="85" type="street" numLanes="2" speed="11.11" shape="-8211409.26,4524129.12 -8211409.26,4524225.6899999995"/>
    <edge id="e144" from="75" to="76" type="avenue" numLanes="3" speed="13.89" shape="-8211228.33,4524129.12 -8211047.399999999,4524129.12"/>
    <edge id="e145" from="75" to="86" type="street" numLanes="2" speed="11.11" shape="-8211228.33,4524129.12 -8211228.33,4524225.6899999995"/>
    <edge id="e146" from="76" to="87" type="street" numLanes="2" speed="11.11" shape="-8211047.399999999,4524129.12 -8211047.399999999,4524225.6899999995"/>
    <edge id="e147" from="77" to="78" type="street" numLanes="2" speed="13.89" shape="-8212856.7,4524225.6899999995 -8212675.77,4524225.6899999995"/>
    <edge id="e148" from="77" to="88" type="street" numLanes="2" speed="11.11" shape="-8212856.7,4524225.6899999995 -8212856.7,4524322.26"/>
    <edge id="e149" from="78" to="79" type="street" numLanes="2" speed="13.89" shape="-8212675.77,4524225.6899999995 -8212494.84,4524225.6899999995"/>
    <edge id="e150" from="78" to="89" type="street" numLanes="2" speed="11.11" shape="-8212675.77,4524225.6899999995 -8212675.77,4524322.26"/>
    <edge id="e151" from="79" to="80" type="street" numLanes="2" speed="13.89" shape="-8212494.84,4524225.6899999995 -8212313.909999999,4524225.6899999995"/>
    <edge id="e152" from="79" to="90" type="street" numLanes="2" speed="11.11" shape="-8212494.84,4524225.6899999995 -8212494.84,4524322.26"/>
    <edge id="e153" from="80" to="81" type="street" numLanes="2" speed="13.89" shape="-8212313.909999999,4524225.6899999995 -8212132.98,4524225.6899999995"/>
    <edge id="e154" from="80" to="91" type="street" numLanes="2" speed="11.11" shape="-8212313.909999999,4524225.6899999995 -8212313.909999999,4524322.26"/>
    <edge id="e155" from="81" to="82" type="street" numLanes="2" speed="13.89" shape="-8212132.98,4524225.6899999995 -8211952.05,4524225.6899999995"/>
    <edge id="e156" from="81" to="92" type="street" numLanes="2" speed="11.11" shape="-8212132.98,4524225.6899999995 -8212132.98,4524322.26"/>
    <edge id="e157" from="82" to="83" type="street" numLanes="2" speed="13.89" shape="-8211952.05,4524225.6899999995 -8211771.119999999,4524225.6899999995"/>
    <edge id="e158" from="82" to="93" type="street" numLanes="2" speed="11.11" shape="-8211952.05,4524225.6899999995 -8211952.05,4524322.26"/>
    <edge id="e159" from="83" to="84" type="street" numLanes="2" speed="13.89" shape="-8211771.119999999,4524225.6899999995 -8211590.19,4524225.6899999995"/>
    <edge id="e160" from="83" to="94" type="street" numLanes="2" speed="11.11" shape="-8211771.119999999,4524225.6899999995 -8211771.119999999,4524322.26"/>
    <edge id="e161" from="84" to="85" type="street" numLanes="2" speed="13.89" shape="-8211590.19,4524225.6899999995 -8211409.26,4524225.6899999995"/>
    <edge id="e162" from="84" to="95" type="street" numLanes="2" speed="11.11" shape="-8211590.19,4524225.6899999995 -8211590.19,4524322.26"/>
    <edge id="e163" from="85" to="86" type="street" numLanes="2" speed="13.89" shape="-8211409.26,4524225.6899999995 -8211228.33,4524225.6899999995"/>
    <edge id="e164" from="85" to="96" type="street" numLanes="2" speed="11.11" shape="-8211409.26,4524225.6899999995 -8211409.26,4524322.26"/>
    <edge id="e165" from="86" to="87" type="street" numLanes="2" speed="13.89" shape="-8211228.33,4524225.6899999995 -8211047.399999999,4524225.6899999995"/>
    <edge id="e166" from="86" to="97" type="street" numLanes="2" speed="11.11" shape="-8211228.33,4524225.6899999995 -8211228.33,4524322.26"/>
    <edge id="e167" from="87" to="98" type="street" numLanes="2" speed="11.11" shape="-8211047.399999999,4524225.6899999995 -8211047.399999999,4524322.26"/>
    <edge id="e168" from="88" to="89" type="avenue" numLanes="3" speed="13.89" shape="-8212856.7,4524322.26 -8212675.77,4524322.26"/>
    <edge id="e169" from="88" to="99" type="street" numLanes="2" speed="11.11" shape="-8212856.7,4524322.26 -8212856.7,4524418.83"/>
    <edge id="e170" from="89" to="90" type="avenue" numLanes="3" speed="13.89" shape="-8212675.77,4524322.26 -8212494.84,4524322.26"/>
    <edge id="e171" from="89" to="100" type="street" numLanes="2" speed="11.11" shape="-8212675.77,4524322.26 -8212675.77,4524418.83"/>
    <edge id="e172" from="90" to="91" type="avenue" numLanes="3" speed="13.89" shape="-8212494.84,4524322.26 -8212313.909999999,4524322.26"/>
    <edge id="e173" from="90" to="101" type="street" numLanes="2" speed="11.11" shape="-8212494.84,4524322.26 -8212494.84,4524418.83"/>
    <edge id="e174" from="91" to="92" type="avenue" numLanes="3" speed="13.89" shape="-8212313.909999999,4524322.26 -8212132.98,4524322.26"/>
    <edge id="e175" from="91" to="102" type="street" numLanes="2" speed="11.11" shape="-8212313.909999999,4524322.26 -8212313.909999999,4524418.83"/>
    <edge id="e176" from="92" to="93" type="avenue" numLanes="3" speed="13.89" shape="-8212132.98,4524322.26 -8211952.05,4524322.26"/>
    <edge id="e177" from="92" to="103" type="street" numLanes="2" speed="11.11" shape="-8212132.98,4524322.26 -8212132.98,4524418.83"/>
    <edge id="e178" from="93" to="94" type="avenue" numLanes="3" speed="13.89" shape="-8211952.05,4524322.26 -8211771.119999999,4524322.26"/>
    <edge id="e179" from="93" to="104" type="street" numLanes="2" speed="11.11" shape="-8211952.05,4524322.26 -8211952.05,4524418.83"/>
    <edge id="e180" from="94" to="95" type="avenue" numLanes="3" speed="13.89" shape="-8211771.119999999,4524322.26 -8211590.19,4524322.26"/>
    <edge id="e181" from="94" to="105" type="street" numLanes="2" speed="11.11" shape="-8211771.119999999,4524322.26 -8211771.119999999,4524418.83"/>
    <edge id="e182" from="95" to="96" type="avenue" numLanes="3" speed="13.89" shape="-8211590.19,4524322.26 -8211409.26,4524322.26"/>
    <edge id="e183" from="95" to="106" type="street" numLanes="2" speed="11.11" shape="-8211590.19,4524322.26 -8211590.19,4524418.83"/>
    <edge id="e184" from="96" to="97" type="avenue" numLanes="3" speed="13.89" shape="-8211409.26,4524322.26 -8211228.33,4524322.26"/>
    <edge id="e185" from="96" to="107" type="street" numLanes="2" speed="11.11" shape="-8211409.26,4524322.26 -8211409.26,4524418.83"/>
    <edge id="e186" from="97" to="98" type="avenue" numLanes="3" speed="13.89" shape="-8211228.33,4524322.26 -8211047.399999999,4524322.26"/>
    <edge id="e187" from="97" to="108" type="street" numLanes="2" speed="11.11" shape="-8211228.33,4524322.26 -8211228.33,4524418.83"/>
    <edge id="e188" from="98" to="109" type="street" numLanes="2" speed="11.11" shape="-8211047.399999999,4524322.26 -8211047.399999999,4524418.83"/>
    <edge id="e189" from="99" to="100" type="street" numLanes="2" speed="13.89" shape="-8212856.7,4524418.83 -8212675.77,4524418.83"/>
    <edge id="e190" from="99" to="110" type="street" numLanes="2" speed="11.11" shape="-8212856.7,4524418.83 -8212856.7,4524515.4"/>
    <edge id="e191" from="100" to="101" type="street" numLanes="2" speed="13.89" shape="-8212675.77,4524418.83 -8212494.84,4524418.83"/>
    <edge id="e192" from="100" to="111" type="street" numLanes="2" speed="11.11" shape="-8212675.77,4524418.83 -8212675.77,4524515.4"/>
    <edge id="e193" from="101" to="102" type="street" numLanes="2" speed="13.89" shape="-8212494.84,4524418.83 -8212313.909999999,4524418.83"/>
    <edge id="e194" from="101" to="112" type="street" numLanes="2" speed="11.11" shape="-8212494.84,4524418.83 -8212494.84,4524515.4"/>
    <edge id="e195" from="102" to="103" type="street" numLanes="2" speed="13.89" shape="-8212313.909999999,4524418.83 -8212132.98,4524418.83"/>
    <edge id="e196" from="102" to="113" type="street" numLanes="2" speed="11.11" shape="-8212313.909999999,4524418.83 -8212313.909999999,4524515.4"/>
    <edge id="e197" from="103" to="104" type="street" numLanes="2" speed="13.89" shape="-8212132.98,4524418.83 -8211952.05,4524418.83"/>
    <edge id="e198" from="103" to="114" type="street" numLanes="2" speed="11.11" shape="-8212132.98,4524418.83 -8212132.98,4524515.4"/>
    <edge id="e199" from="104" to="105" type="street" numLanes="2" speed="13.89" shape="-8211952.05,4524418.83 -8211771.119999999,4524418.83"/>
    <edge id="e200" from="104" to="115" type="street" numLanes="2" speed="11.11" shape="-8211952.05,4524418.83 -8211952.05,4524515.4"/>
    <edge id="e201" from="105" to="106" type="street" numLanes="2" speed="13.89" shape="-8211771.119999999,4524418.83 -8211590.19,4524418.83"/>
    <edge id="e202" from="105" to="116" type="street" numLanes="2" speed="11.11" shape="-8211771.119999999,4524418.83 -8211771.119999999,4524515.4"/>
    <edge id="e203" from="106" to="107" type="street" numLanes="2" speed="13.89" shape="-8211590.19,4524418.83 -8211409.26,4524418.83"/>
    <edge id="e204" from="106" to="117" type="street" numLanes="2" speed="11.11" shape="-8211590.19,4524418.83 -8211590.19,4524515.4"/>
    <edge id="e205" from="107" to="108" type="street" numLanes="2" speed="13.89" shape="-8211409.26,4524418.83 -8211228.33,4524418.83"/>
    <edge id="e206" from="107" to="118" type="street" numLanes="2" speed="11.11" shape="-8211409.26,4524418.83 -8211409.26,4524515.4"/>
    <edge id="e207" from="108" to="109" type="street" numLanes="2" speed="13.89" shape="-8211228.33,4524418.83 -8211047.399999999,4524418.83"/>
    <edge id="e208" from="108" to="119" type="street" numLanes="2" speed="11.11" shape="-8211228.33,4524418.83 -8211228.33,4524515.4"/>
    <edge id="e209" from="109" to="120" type="street" numLanes="2" speed="11.11" shape="-8211047.399999999,4524418.83 -8211047.399999999,4524515.4"/>