<?xml version="1.0" encoding="UTF-8"?>
<nodes>
    <node id="n0" x="-8212668.0" y="4523805.0"/>
    <node id="n1" x="-8212668.0" y="4523860.500000001"/>
    <node id="n2" x="-8212668.0" y="4523916.0"/>
    <node id="n3" x="-8212668.0" y="4523971.5"/>
    <node id="n4" x="-8212668.0" y="4524027.000000001"/>
    <node id="n5" x="-8212668.0" y="4524082.5"/>
    <node id="n6" x="-8212668.0" y="4524138.0"/>
    <node id="n7" x="-8212668.0" y="4524193.500000001"/>
    <node id="n8" x="-8212668.0" y="4524249.0"/>
    <node id="n9" x="-8212668.0" y="4524304.5"/>
    <node id="n10" x="-8212556.999999999" y="4523805.0"/>
    <node id="n11" x="-8212556.999999999" y="4523860.500000001"/>
    <node id="n12" x="-8212556.999999999" y="4523916.0"/>
    <node id="n13" x="-8212556.999999999" y="4523971.5"/>
    <node id="n14" x="-8212556.999999999" y="4524027.000000001"/>
    <node id="n15" x="-8212556.999999999" y="4524082.5"/>
    <node id="n16" x="-8212556.999999999" y="4524138.0"/>
    <node id="n17" x="-8212556.999999999" y="4524193.500000001"/>
    <node id="n18" x="-8212556.999999999" y="4524249.0"/>
    <node id="n19" x="-8212556.999999999" y="4524304.5"/>
    <node id="n20" x="-8212446.000000001" y="4523805.0"/>
    <node id="n21" x="-8212446.000000001" y="4523860.500000001"/>
    <node id="n22" x="-8212446.000000001" y="4523916.0"/>
    <node id="n23" x="-8212446.000000001" y="4523971.5"/>
    <node id="n24" x="-8212446.000000001" y="4524027.000000001"/>
    <node id="n25" x="-8212446.000000001" y="4524082.5"/>
    <node id="n26" x="-8212446.000000001" y="4524138.0"/>
    <node id="n27" x="-8212446.000000001" y="4524193.500000001"/>
    <node id="n28" x="-8212446.000000001" y="4524249.0"/>
    <node id="n29" x="-8212446.000000001" y="4524304.5"/>
    <node id="n30" x="-8212335.0" y="4523805.0"/>
    <node id="n31" x="-8212335.0" y="4523860.500000001"/>
    <node id="n32" x="-8212335.0" y="4523916.0"/>
    <node id="n33" x="-8212335.0" y="4523971.5"/>
    <node id="n34" x="-8212335.0" y="4524027.000000001"/>
    <node id="n35" x="-8212335.0" y="4524082.5"/>
    <node id="n36" x="-8212335.0" y="4524138.0"/>
    <node id="n37" x="-8212335.0" y="4524193.500000001"/>
    <node id="n38" x="-8212335.0" y="4524249.0"/>
    <node id="n39" x="-8212335.0" y="4524304.5"/>
    <node id="n40" x="-8212223.999999999" y="4523805.0"/>
    <node id="n41" x="-8212223.999999999" y="4523860.500000001"/>
    <node id="n42" x="-8212223.999999999" y="4523916.0"/>
    <node id="n43" x="-8212223.999999999" y="4523971.5"/>
    <node id="n44" x="-8212223.999999999" y="4524027.000000001"/>
    <node id="n45" x="-8212223.999999999" y="4524082.5"/>
    <node id="n46" x="-8212223.999999999" y="4524138.0"/>
    <node id="n47" x="-8212223.999999999" y="4524193.500000001"/>
    <node id="n48" x="-8212223.999999999" y="4524249.0"/>
    <node id="n49" x="-8212223.999999999" y="4524304.5"/>
    <node id="n50" x="-8212113.0" y="4523805.0"/>
    <node id="n51" x="-8212113.0" y="4523860.500000001"/>
    <node id="n52" x="-8212113.0" y="4523916.0"/>
    <node id="n53" x="-8212113.0" y="4523971.5"/>
    <node id="n54" x="-8212113.0" y="4524027.000000001"/>
    <node id="n55" x="-8212113.0" y="4524082.5"/>
    <node id="n56" x="-8212113.0" y="4524138.0"/>
    <node id="n57" x="-8212113.0" y="4524193.500000001"/>
    <node id="n58" x="-8212113.0" y="4524249.0"/>
    <node id="n59" x="-8212113.0" y="4524304.5"/>
    <node id="n60" x="-8212002.0" y="4523805.0"/>
    <node id="n61" x="-8212002.0" y="4523860.500000001"/>
    <node id="n62" x="-8212002.0" y="4523916.0"/>
    <node id="n63" x="-8212002.0" y="4523971.5"/>
    <node id="n64" x="-8212002.0" y="4524027.000000001"/>
    <node id="n65" x="-8212002.0" y="4524082.5"/>
    <node id="n66" x="-8212002.0" y="4524138.0"/>
    <node id="n67" x="-8212002.0" y="4524193.500000001"/>
    <node id="n68" x="-8212002.0" y="4524249.0"/>
    <node id="n69" x="-8212002.0" y="4524304.5"/>
    <node id="n70" x="-8211890.999999999" y="4523805.0"/>
    <node id="n71" x="-8211890.999999999" y="4523860.500000001"/>
    <node id="n72" x="-8211890.999999999" y="4523916.0"/>
    <node id="n73" x="-8211890.999999999" y="4523971.5"/>
    <node id="n74" x="-8211890.999999999" y="4524027.000000001"/>
    <node id="n75" x="-8211890.999999999" y="4524082.5"/>
    <node id="n76" x="-8211890.999999999" y="4524138.0"/>
    <node id="n77" x="-8211890.999999999" y="4524193.500000001"/>
    <node id="n78" x="-8211890.999999999" y="4524249.0"/>
    <node id="n79" x="-8211890.999999999" y="4524304.5"/>
    <node id="n80" x="-8211780.0" y="4523805.0"/>
    <node id="n81" x="-8211780.0" y="4523860.500000001"/>
    <node id="n82" x="-8211780.0" y="4523916.0"/>
    <node id="n83" x="-8211780.0" y="4523971.5"/>
    <node id="n84" x="-8211780.0" y="4524027.000000001"/>
    <node id="n85" x="-8211780.0" y="4524082.5"/>
    <node id="n86" x="-8211780.0" y="4524138.0"/>
    <node id="n87" x="-8211780.0" y="4524193.500000001"/>
    <node id="n88" x="-8211780.0" y="4524249.0"/>
    <node id="n89" x="-8211780.0" y="4524304.5"/>
    <node id="n90" x="-8211669.0" y="4523805.0"/>
    <node id="n91" x="-8211669.0" y="4523860.500000001"/>
    <node id="n92" x="-8211669.0" y="4523916.0"/>
    <node id="n93" x="-8211669.0" y="4523971.5"/>
    <node id="n94" x="-8211669.0" y="4524027.000000001"/>
    <node id="n95" x="-8211669.0" y="4524082.5"/>
    <node id="n96" x="-8211669.0" y="4524138.0"/>
    <node id="n97" x="-8211669.0" y="4524193.500000001"/>
    <node id="n98" x="-8211669.0" y="4524249.0"/>
    <node id="n99" x="-8211669.0" y="4524304.5"/>
</nodes>