<?xml version="1.0" encoding="UTF-8"?>

<!-- generated on 2025-08-25 18:49:28 by Eclipse SUMO netconvert Version 1.24.0
<netconvertConfiguration xmlns:xsi="http://www.w3.org/2001/XMLSchema-instance" xsi:noNamespaceSchemaLocation="http://sumo.dlr.de/xsd/netconvertConfiguration.xsd">

    <input>
        <node-files value="data/sumo/manhattan.nod.xml"/>
        <edge-files value="data/sumo/manhattan.edg.xml"/>
    </input>

    <output>
        <output-file value="data/sumo/manhattan.net.xml"/>
    </output>

    <tls_building>
        <tls.guess value="true"/>
        <tls.default-type value="actuated"/>
    </tls_building>

    <junctions>
        <no-turnarounds value="true"/>
    </junctions>

</netconvertConfiguration>
-->

<net version="1.20" junctionCornerDetail="5" limitTurnSpeed="5.50" xmlns:xsi="http://www.w3.org/2001/XMLSchema-instance" xsi:noNamespaceSchemaLocation="http://sumo.dlr.de/xsd/net_file.xsd">

    <location netOffset="8212668.00,-4523805.00" convBoundary="0.00,0.00,999.00,499.50" origBoundary="-8212668.00,4523805.00,-8211669.00,4524304.50" projParameter="!"/>

    <edge id=":n0_0" function="internal">
        <lane id=":n0_0_0" index="0" speed="11.39" length="29.85" shape="-8.00,10.40 -6.65,3.75 -2.60,-1.00 4.15,-3.85 13.60,-4.80"/>
        <lane id=":n0_0_1" index="1" speed="10.41" length="24.73" shape="-4.80,10.40 -3.65,5.15 -0.20,1.40 5.55,-0.85 13.60,-1.60"/>
    </edge>
    <edge id=":n0_2" function="internal">
        <lane id=":n0_2_0" index="0" speed="6.51" length="9.03" shape="13.60,4.80 11.15,5.15 9.40,6.20 8.35,7.95 8.00,10.40"/>
        <lane id=":n0_2_1" index="1" speed="8.00" length="14.19" shape="13.60,1.60 9.75,2.15 7.00,3.80 5.35,6.55 4.80,10.40"/>
        <lane id=":n0_2_2" index="2" speed="8.67" length="16.85" shape="13.60,1.60 8.35,2.15 4.60,3.80 2.35,6.55 1.60,10.40"/>
    </edge>
    <edge id=":n1_0" function="internal">
        <lane id=":n1_0_0" index="0" speed="13.89" length="20.80" shape="-8.00,65.90 -8.00,45.10"/>
        <lane id=":n1_0_1" index="1" speed="13.89" length="20.80" shape="-4.80,65.90 -4.80,45.10"/>
        <lane id=":n1_0_2" index="2" speed="13.89" length="20.80" shape="-1.60,65.90 -1.60,45.10"/>
    </edge>
    <edge id=":n1_3" function="internal">
        <lane id=":n1_3_0" index="0" speed="9.84" length="4.01" shape="-1.60,65.90 -0.89,61.95"/>
    </edge>
    <edge id=":n1_12" function="internal">
        <lane id=":n1_12_0" index="0" speed="9.84" length="17.98" shape="-0.89,61.95 -0.65,60.65 2.20,56.90 6.95,54.65 13.60,53.90"/>
    </edge>
    <edge id=":n1_4" function="internal">
        <lane id=":n1_4_0" index="0" speed="6.51" length="9.03" shape="13.60,60.30 11.15,60.65 9.40,61.70 8.35,63.45 8.00,65.90"/>
        <lane id=":n1_4_1" index="1" speed="8.00" length="14.19" shape="13.60,57.10 9.75,57.65 7.00,59.30 5.35,62.05 4.80,65.90"/>
    </edge>
    <edge id=":n1_6" function="internal">
        <lane id=":n1_6_0" index="0" speed="10.41" length="24.73" shape="13.60,57.10 5.55,56.35 -0.20,54.10 -3.65,50.35 -4.80,45.10"/>
        <lane id=":n1_6_1" index="1" speed="9.84" length="21.99" shape="13.60,57.10 6.95,56.35 2.20,54.10 -0.65,50.35 -1.60,45.10"/>
    </edge>
    <edge id=":n1_8" function="internal">
        <lane id=":n1_8_0" index="0" speed="6.51" length="9.03" shape="8.00,45.10 8.35,47.55 9.40,49.30 11.15,50.35 13.60,50.70"/>
    </edge>
    <edge id=":n1_9" function="internal">
        <lane id=":n1_9_0" index="0" speed="13.89" length="20.80" shape="8.00,45.10 8.00,65.90"/>
        <lane id=":n1_9_1" index="1" speed="13.89" length="20.80" shape="4.80,45.10 4.80,65.90"/>
        <lane id=":n1_9_2" index="2" speed="13.89" length="20.80" shape="1.60,45.10 1.60,65.90"/>
    </edge>
    <edge id=":n10_0" function="internal">
        <lane id=":n10_0_0" index="0" speed="6.51" length="9.03" shape="103.00,10.40 102.65,7.95 101.60,6.20 99.85,5.15 97.40,4.80"/>
        <lane id=":n10_0_1" index="1" speed="8.00" length="14.19" shape="106.20,10.40 105.65,6.55 104.00,3.80 101.25,2.15 97.40,1.60"/>
    </edge>
    <edge id=":n10_2" function="internal">
        <lane id=":n10_2_0" index="0" speed="9.84" length="21.99" shape="109.40,10.40 110.35,5.15 113.20,1.40 117.95,-0.85 124.60,-1.60"/>
    </edge>
    <edge id=":n10_3" function="internal">
        <lane id=":n10_3_0" index="0" speed="6.51" length="9.03" shape="124.60,4.80 122.15,5.15 120.40,6.20 119.35,7.95 119.00,10.40"/>
    </edge>
    <edge id=":n10_4" function="internal">
        <lane id=":n10_4_0" index="0" speed="11.11" length="27.20" shape="124.60,4.80 97.40,4.80"/>
        <lane id=":n10_4_1" index="1" speed="11.11" length="27.20" shape="124.60,1.60 97.40,1.60"/>
    </edge>
    <edge id=":n10_6" function="internal">
        <lane id=":n10_6_0" index="0" speed="11.11" length="27.20" shape="97.40,-4.80 124.60,-4.80"/>
        <lane id=":n10_6_1" index="1" speed="11.11" length="27.20" shape="97.40,-1.60 124.60,-1.60"/>
    </edge>
    <edge id=":n10_8" function="internal">
        <lane id=":n10_8_0" index="0" speed="10.41" length="7.59" shape="97.40,-1.60 104.95,-0.90"/>
        <lane id=":n10_8_1" index="1" speed="9.84" length="6.30" shape="97.40,-1.60 103.66,-0.89"/>
    </edge>
    <edge id=":n10_10" function="internal">
        <lane id=":n10_10_0" index="0" speed="10.41" length="17.14" shape="104.95,-0.90 105.45,-0.85 111.20,1.40 114.65,5.15 115.80,10.40"/>
        <lane id=":n10_10_1" index="0" speed="9.84" length="15.70" shape="103.66,-0.89 104.05,-0.85 108.80,1.40 111.65,5.15 112.60,10.40"/>
    </edge>
    <edge id=":n11_0" function="internal">
        <lane id=":n11_0_0" index="0" speed="6.51" length="9.03" shape="103.00,65.90 102.65,63.45 101.60,61.70 99.85,60.65 97.40,60.30"/>
    </edge>
    <edge id=":n11_1" function="internal">
        <lane id=":n11_1_0" index="0" speed="13.89" length="20.80" shape="103.00,65.90 103.00,45.10"/>
        <lane id=":n11_1_1" index="1" speed="13.89" length="20.80" shape="106.20,65.90 106.20,45.10"/>
        <lane id=":n11_1_2" index="2" speed="13.89" length="20.80" shape="109.40,65.90 109.40,45.10"/>
    </edge>
    <edge id=":n11_4" function="internal">
        <lane id=":n11_4_0" index="0" speed="9.84" length="4.01" shape="109.40,65.90 110.11,61.95"/>
    </edge>
    <edge id=":n11_18" function="internal">
        <lane id=":n11_18_0" index="0" speed="9.84" length="17.98" shape="110.11,61.95 110.35,60.65 113.20,56.90 117.95,54.65 124.60,53.90"/>
    </edge>
    <edge id=":n11_5" function="internal">
        <lane id=":n11_5_0" index="0" speed="6.51" length="9.03" shape="124.60,60.30 122.15,60.65 120.40,61.70 119.35,63.45 119.00,65.90"/>
    </edge>
    <edge id=":n11_6" function="internal">
        <lane id=":n11_6_0" index="0" speed="11.11" length="27.20" shape="124.60,60.30 97.40,60.30"/>
        <lane id=":n11_6_1" index="1" speed="11.11" length="27.20" shape="124.60,57.10 97.40,57.10"/>
    </edge>
    <edge id=":n11_8" function="internal">
        <lane id=":n11_8_0" index="0" speed="9.84" length="6.30" shape="124.60,57.10 118.34,56.39"/>
    </edge>
    <edge id=":n11_19" function="internal">
        <lane id=":n11_19_0" index="0" speed="9.84" length="15.70" shape="118.34,56.39 117.95,56.35 113.20,54.10 110.35,50.35 109.40,45.10"/>
    </edge>
    <edge id=":n11_9" function="internal">
        <lane id=":n11_9_0" index="0" speed="6.51" length="9.03" shape="119.00,45.10 119.35,47.55 120.40,49.30 122.15,50.35 124.60,50.70"/>
    </edge>
    <edge id=":n11_10" function="internal">
        <lane id=":n11_10_0" index="0" speed="13.89" length="20.80" shape="119.00,45.10 119.00,65.90"/>
        <lane id=":n11_10_1" index="1" speed="13.89" length="20.80" shape="115.80,45.10 115.80,65.90"/>
        <lane id=":n11_10_2" index="2" speed="13.89" length="20.80" shape="112.60,45.10 112.60,65.90"/>
    </edge>
    <edge id=":n11_13" function="internal">
        <lane id=":n11_13_0" index="0" speed="9.84" length="4.01" shape="112.60,45.10 111.89,49.05"/>
    </edge>
    <edge id=":n11_20" function="internal">
        <lane id=":n11_20_0" index="0" speed="9.84" length="17.98" shape="111.89,49.05 111.65,50.35 108.80,54.10 104.05,56.35 97.40,57.10"/>
    </edge>
    <edge id=":n11_14" function="internal">
        <lane id=":n11_14_0" index="0" speed="6.51" length="9.03" shape="97.40,50.70 99.85,50.35 101.60,49.30 102.65,47.55 103.00,45.10"/>
    </edge>
    <edge id=":n11_15" function="internal">
        <lane id=":n11_15_0" index="0" speed="11.11" length="27.20" shape="97.40,50.70 124.60,50.70"/>
        <lane id=":n11_15_1" index="1" speed="11.11" length="27.20" shape="97.40,53.90 124.60,53.90"/>
    </edge>
    <edge id=":n11_17" function="internal">
        <lane id=":n11_17_0" index="0" speed="9.84" length="6.30" shape="97.40,53.90 103.66,54.61"/>
    </edge>
    <edge id=":n11_21" function="internal">
        <lane id=":n11_21_0" index="0" speed="9.84" length="15.70" shape="103.66,54.61 104.05,54.65 108.80,56.90 111.65,60.65 112.60,65.90"/>
    </edge>
    <edge id=":n12_0" function="internal">
        <lane id=":n12_0_0" index="0" speed="6.51" length="9.03" shape="103.00,121.40 102.65,118.95 101.60,117.20 99.85,116.15 97.40,115.80"/>
    </edge>
    <edge id=":n12_1" function="internal">
        <lane id=":n12_1_0" index="0" speed="13.89" length="20.80" shape="103.00,121.40 103.00,100.60"/>
        <lane id=":n12_1_1" index="1" speed="13.89" length="20.80" shape="106.20,121.40 106.20,100.60"/>
        <lane id=":n12_1_2" index="2" speed="13.89" length="20.80" shape="109.40,121.40 109.40,100.60"/>
    </edge>
    <edge id=":n12_4" function="internal">
        <lane id=":n12_4_0" index="0" speed="9.84" length="4.01" shape="109.40,121.40 110.11,117.45"/>
    </edge>
    <edge id=":n12_18" function="internal">
        <lane id=":n12_18_0" index="0" speed="9.84" length="17.98" shape="110.11,117.45 110.35,116.15 113.20,112.40 117.95,110.15 124.60,109.40"/>
    </edge>
    <edge id=":n12_5" function="internal">
        <lane id=":n12_5_0" index="0" speed="6.51" length="9.03" shape="124.60,115.80 122.15,116.15 120.40,117.20 119.35,118.95 119.00,121.40"/>
    </edge>
    <edge id=":n12_6" function="internal">
        <lane id=":n12_6_0" index="0" speed="11.11" length="27.20" shape="124.60,115.80 97.40,115.80"/>
        <lane id=":n12_6_1" index="1" speed="11.11" length="27.20" shape="124.60,112.60 97.40,112.60"/>
    </edge>
    <edge id=":n12_8" function="internal">
        <lane id=":n12_8_0" index="0" speed="9.84" length="6.30" shape="124.60,112.60 118.34,111.89"/>
    </edge>
    <edge id=":n12_19" function="internal">
        <lane id=":n12_19_0" index="0" speed="9.84" length="15.70" shape="118.34,111.89 117.95,111.85 113.20,109.60 110.35,105.85 109.40,100.60"/>
    </edge>
    <edge id=":n12_9" function="internal">
        <lane id=":n12_9_0" index="0" speed="6.51" length="9.03" shape="119.00,100.60 119.35,103.05 120.40,104.80 122.15,105.85 124.60,106.20"/>
    </edge>
    <edge id=":n12_10" function="internal">
        <lane id=":n12_10_0" index="0" speed="13.89" length="20.80" shape="119.00,100.60 119.00,121.40"/>
        <lane id=":n12_10_1" index="1" speed="13.89" length="20.80" shape="115.80,100.60 115.80,121.40"/>
        <lane id=":n12_10_2" index="2" speed="13.89" length="20.80" shape="112.60,100.60 112.60,121.40"/>
    </edge>
    <edge id=":n12_13" function="internal">
        <lane id=":n12_13_0" index="0" speed="9.84" length="4.01" shape="112.60,100.60 111.89,104.55"/>
    </edge>
    <edge id=":n12_20" function="internal">
        <lane id=":n12_20_0" index="0" speed="9.84" length="17.98" shape="111.89,104.55 111.65,105.85 108.80,109.60 104.05,111.85 97.40,112.60"/>
    </edge>
    <edge id=":n12_14" function="internal">
        <lane id=":n12_14_0" index="0" speed="6.51" length="9.03" shape="97.40,106.20 99.85,105.85 101.60,104.80 102.65,103.05 103.00,100.60"/>
    </edge>
    <edge id=":n12_15" function="internal">
        <lane id=":n12_15_0" index="0" speed="11.11" length="27.20" shape="97.40,106.20 124.60,106.20"/>
        <lane id=":n12_15_1" index="1" speed="11.11" length="27.20" shape="97.40,109.40 124.60,109.40"/>
    </edge>
    <edge id=":n12_17" function="internal">
        <lane id=":n12_17_0" index="0" speed="9.84" length="6.30" shape="97.40,109.40 103.66,110.11"/>
    </edge>
    <edge id=":n12_21" function="internal">
        <lane id=":n12_21_0" index="0" speed="9.84" length="15.70" shape="103.66,110.11 104.05,110.15 108.80,112.40 111.65,116.15 112.60,121.40"/>
    </edge>
    <edge id=":n13_0" function="internal">
        <lane id=":n13_0_0" index="0" speed="6.51" length="9.03" shape="103.00,176.90 102.65,174.45 101.60,172.70 99.85,171.65 97.40,171.30"/>
    </edge>
    <edge id=":n13_1" function="internal">
        <lane id=":n13_1_0" index="0" speed="13.89" length="20.80" shape="103.00,176.90 103.00,156.10"/>
        <lane id=":n13_1_1" index="1" speed="13.89" length="20.80" shape="106.20,176.90 106.20,156.10"/>
        <lane id=":n13_1_2" index="2" speed="13.89" length="20.80" shape="109.40,176.90 109.40,156.10"/>
    </edge>
    <edge id=":n13_4" function="internal">
        <lane id=":n13_4_0" index="0" speed="9.84" length="4.01" shape="109.40,176.90 110.11,172.95"/>
    </edge>
    <edge id=":n13_18" function="internal">
        <lane id=":n13_18_0" index="0" speed="9.84" length="17.98" shape="110.11,172.95 110.35,171.65 113.20,167.90 117.95,165.65 124.60,164.90"/>
    </edge>
    <edge id=":n13_5" function="internal">
        <lane id=":n13_5_0" index="0" speed="6.51" length="9.03" shape="124.60,171.30 122.15,171.65 120.40,172.70 119.35,174.45 119.00,176.90"/>
    </edge>
    <edge id=":n13_6" function="internal">
        <lane id=":n13_6_0" index="0" speed="11.11" length="27.20" shape="124.60,171.30 97.40,171.30"/>
        <lane id=":n13_6_1" index="1" speed="11.11" length="27.20" shape="124.60,168.10 97.40,168.10"/>
    </edge>
    <edge id=":n13_8" function="internal">
        <lane id=":n13_8_0" index="0" speed="9.84" length="6.30" shape="124.60,168.10 118.34,167.39"/>
    </edge>
    <edge id=":n13_19" function="internal">
        <lane id=":n13_19_0" index="0" speed="9.84" length="15.70" shape="118.34,167.39 117.95,167.35 113.20,165.10 110.35,161.35 109.40,156.10"/>
    </edge>
    <edge id=":n13_9" function="internal">
        <lane id=":n13_9_0" index="0" speed="6.51" length="9.03" shape="119.00,156.10 119.35,158.55 120.40,160.30 122.15,161.35 124.60,161.70"/>
    </edge>
    <edge id=":n13_10" function="internal">
        <lane id=":n13_10_0" index="0" speed="13.89" length="20.80" shape="119.00,156.10 119.00,176.90"/>
        <lane id=":n13_10_1" index="1" speed="13.89" length="20.80" shape="115.80,156.10 115.80,176.90"/>
        <lane id=":n13_10_2" index="2" speed="13.89" length="20.80" shape="112.60,156.10 112.60,176.90"/>
    </edge>
    <edge id=":n13_13" function="internal">
        <lane id=":n13_13_0" index="0" speed="9.84" length="4.01" shape="112.60,156.10 111.89,160.05"/>
    </edge>
    <edge id=":n13_20" function="internal">
        <lane id=":n13_20_0" index="0" speed="9.84" length="17.98" shape="111.89,160.05 111.65,161.35 108.80,165.10 104.05,167.35 97.40,168.10"/>
    </edge>
    <edge id=":n13_14" function="internal">
        <lane id=":n13_14_0" index="0" speed="6.51" length="9.03" shape="97.40,161.70 99.85,161.35 101.60,160.30 102.65,158.55 103.00,156.10"/>
    </edge>
    <edge id=":n13_15" function="internal">
        <lane id=":n13_15_0" index="0" speed="11.11" length="27.20" shape="97.40,161.70 124.60,161.70"/>
        <lane id=":n13_15_1" index="1" speed="11.11" length="27.20" shape="97.40,164.90 124.60,164.90"/>
    </edge>
    <edge id=":n13_17" function="internal">
        <lane id=":n13_17_0" index="0" speed="9.84" length="6.30" shape="97.40,164.90 103.66,165.61"/>
    </edge>
    <edge id=":n13_21" function="internal">
        <lane id=":n13_21_0" index="0" speed="9.84" length="15.70" shape="103.66,165.61 104.05,165.65 108.80,167.90 111.65,171.65 112.60,176.90"/>
    </edge>
    <edge id=":n14_0" function="internal">
        <lane id=":n14_0_0" index="0" speed="6.51" length="9.03" shape="103.00,232.40 102.65,229.95 101.60,228.20 99.85,227.15 97.40,226.80"/>
    </edge>
    <edge id=":n14_1" function="internal">
        <lane id=":n14_1_0" index="0" speed="13.89" length="20.80" shape="103.00,232.40 103.00,211.60"/>
        <lane id=":n14_1_1" index="1" speed="13.89" length="20.80" shape="106.20,232.40 106.20,211.60"/>
        <lane id=":n14_1_2" index="2" speed="13.89" length="20.80" shape="109.40,232.40 109.40,211.60"/>
    </edge>
    <edge id=":n14_4" function="internal">
        <lane id=":n14_4_0" index="0" speed="9.84" length="4.01" shape="109.40,232.40 110.11,228.45"/>
    </edge>
    <edge id=":n14_18" function="internal">
        <lane id=":n14_18_0" index="0" speed="9.84" length="17.98" shape="110.11,228.45 110.35,227.15 113.20,223.40 117.95,221.15 124.60,220.40"/>
    </edge>
    <edge id=":n14_5" function="internal">
        <lane id=":n14_5_0" index="0" speed="6.51" length="9.03" shape="124.60,226.80 122.15,227.15 120.40,228.20 119.35,229.95 119.00,232.40"/>
    </edge>
    <edge id=":n14_6" function="internal">
        <lane id=":n14_6_0" index="0" speed="11.11" length="27.20" shape="124.60,226.80 97.40,226.80"/>
        <lane id=":n14_6_1" index="1" speed="11.11" length="27.20" shape="124.60,223.60 97.40,223.60"/>
    </edge>
    <edge id=":n14_8" function="internal">
        <lane id=":n14_8_0" index="0" speed="9.84" length="6.30" shape="124.60,223.60 118.34,222.89"/>
    </edge>
    <edge id=":n14_19" function="internal">
        <lane id=":n14_19_0" index="0" speed="9.84" length="15.70" shape="118.34,222.89 117.95,222.85 113.20,220.60 110.35,216.85 109.40,211.60"/>
    </edge>
    <edge id=":n14_9" function="internal">
        <lane id=":n14_9_0" index="0" speed="6.51" length="9.03" shape="119.00,211.60 119.35,214.05 120.40,215.80 122.15,216.85 124.60,217.20"/>
    </edge>
    <edge id=":n14_10" function="internal">
        <lane id=":n14_10_0" index="0" speed="13.89" length="20.80" shape="119.00,211.60 119.00,232.40"/>
        <lane id=":n14_10_1" index="1" speed="13.89" length="20.80" shape="115.80,211.60 115.80,232.40"/>
        <lane id=":n14_10_2" index="2" speed="13.89" length="20.80" shape="112.60,211.60 112.60,232.40"/>
    </edge>
    <edge id=":n14_13" function="internal">
        <lane id=":n14_13_0" index="0" speed="9.84" length="4.01" shape="112.60,211.60 111.89,215.55"/>
    </edge>
    <edge id=":n14_20" function="internal">
        <lane id=":n14_20_0" index="0" speed="9.84" length="17.98" shape="111.89,215.55 111.65,216.85 108.80,220.60 104.05,222.85 97.40,223.60"/>
    </edge>
    <edge id=":n14_14" function="internal">
        <lane id=":n14_14_0" index="0" speed="6.51" length="9.03" shape="97.40,217.20 99.85,216.85 101.60,215.80 102.65,214.05 103.00,211.60"/>
    </edge>
    <edge id=":n14_15" function="internal">
        <lane id=":n14_15_0" index="0" speed="11.11" length="27.20" shape="97.40,217.20 124.60,217.20"/>
        <lane id=":n14_15_1" index="1" speed="11.11" length="27.20" shape="97.40,220.40 124.60,220.40"/>
    </edge>
    <edge id=":n14_17" function="internal">
        <lane id=":n14_17_0" index="0" speed="9.84" length="6.30" shape="97.40,220.40 103.66,221.11"/>
    </edge>
    <edge id=":n14_21" function="internal">
        <lane id=":n14_21_0" index="0" speed="9.84" length="15.70" shape="103.66,221.11 104.05,221.15 108.80,223.40 111.65,227.15 112.60,232.40"/>
    </edge>
    <edge id=":n15_0" function="internal">
        <lane id=":n15_0_0" index="0" speed="6.51" length="9.03" shape="103.00,287.90 102.65,285.45 101.60,283.70 99.85,282.65 97.40,282.30"/>
    </edge>
    <edge id=":n15_1" function="internal">
        <lane id=":n15_1_0" index="0" speed="13.89" length="20.80" shape="103.00,287.90 103.00,267.10"/>
        <lane id=":n15_1_1" index="1" speed="13.89" length="20.80" shape="106.20,287.90 106.20,267.10"/>
        <lane id=":n15_1_2" index="2" speed="13.89" length="20.80" shape="109.40,287.90 109.40,267.10"/>
    </edge>
    <edge id=":n15_4" function="internal">
        <lane id=":n15_4_0" index="0" speed="9.84" length="4.01" shape="109.40,287.90 110.11,283.95"/>
    </edge>
    <edge id=":n15_18" function="internal">
        <lane id=":n15_18_0" index="0" speed="9.84" length="17.98" shape="110.11,283.95 110.35,282.65 113.20,278.90 117.95,276.65 124.60,275.90"/>
    </edge>
    <edge id=":n15_5" function="internal">
        <lane id=":n15_5_0" index="0" speed="6.51" length="9.03" shape="124.60,282.30 122.15,282.65 120.40,283.70 119.35,285.45 119.00,287.90"/>
    </edge>
    <edge id=":n15_6" function="internal">
        <lane id=":n15_6_0" index="0" speed="11.11" length="27.20" shape="124.60,282.30 97.40,282.30"/>
        <lane id=":n15_6_1" index="1" speed="11.11" length="27.20" shape="124.60,279.10 97.40,279.10"/>
    </edge>
    <edge id=":n15_8" function="internal">
        <lane id=":n15_8_0" index="0" speed="9.84" length="6.30" shape="124.60,279.10 118.34,278.39"/>
    </edge>
    <edge id=":n15_19" function="internal">
        <lane id=":n15_19_0" index="0" speed="9.84" length="15.70" shape="118.34,278.39 117.95,278.35 113.20,276.10 110.35,272.35 109.40,267.10"/>
    </edge>
    <edge id=":n15_9" function="internal">
        <lane id=":n15_9_0" index="0" speed="6.51" length="9.03" shape="119.00,267.10 119.35,269.55 120.40,271.30 122.15,272.35 124.60,272.70"/>
    </edge>
    <edge id=":n15_10" function="internal">
        <lane id=":n15_10_0" index="0" speed="13.89" length="20.80" shape="119.00,267.10 119.00,287.90"/>
        <lane id=":n15_10_1" index="1" speed="13.89" length="20.80" shape="115.80,267.10 115.80,287.90"/>
        <lane id=":n15_10_2" index="2" speed="13.89" length="20.80" shape="112.60,267.10 112.60,287.90"/>
    </edge>
    <edge id=":n15_13" function="internal">
        <lane id=":n15_13_0" index="0" speed="9.84" length="4.01" shape="112.60,267.10 111.89,271.05"/>
    </edge>
    <edge id=":n15_20" function="internal">
        <lane id=":n15_20_0" index="0" speed="9.84" length="17.98" shape="111.89,271.05 111.65,272.35 108.80,276.10 104.05,278.35 97.40,279.10"/>
    </edge>
    <edge id=":n15_14" function="internal">
        <lane id=":n15_14_0" index="0" speed="6.51" length="9.03" shape="97.40,272.70 99.85,272.35 101.60,271.30 102.65,269.55 103.00,267.10"/>
    </edge>
    <edge id=":n15_15" function="internal">
        <lane id=":n15_15_0" index="0" speed="11.11" length="27.20" shape="97.40,272.70 124.60,272.70"/>
        <lane id=":n15_15_1" index="1" speed="11.11" length="27.20" shape="97.40,275.90 124.60,275.90"/>
    </edge>
    <edge id=":n15_17" function="internal">
        <lane id=":n15_17_0" index="0" speed="9.84" length="6.30" shape="97.40,275.90 103.66,276.61"/>
    </edge>
    <edge id=":n15_21" function="internal">
        <lane id=":n15_21_0" index="0" speed="9.84" length="15.70" shape="103.66,276.61 104.05,276.65 108.80,278.90 111.65,282.65 112.60,287.90"/>
    </edge>
    <edge id=":n16_0" function="internal">
        <lane id=":n16_0_0" index="0" speed="6.51" length="9.03" shape="103.00,343.40 102.65,340.95 101.60,339.20 99.85,338.15 97.40,337.80"/>
    </edge>
    <edge id=":n16_1" function="internal">
        <lane id=":n16_1_0" index="0" speed="13.89" length="20.80" shape="103.00,343.40 103.00,322.60"/>
        <lane id=":n16_1_1" index="1" speed="13.89" length="20.80" shape="106.20,343.40 106.20,322.60"/>
        <lane id=":n16_1_2" index="2" speed="13.89" length="20.80" shape="109.40,343.40 109.40,322.60"/>
    </edge>
    <edge id=":n16_4" function="internal">
        <lane id=":n16_4_0" index="0" speed="9.84" length="4.01" shape="109.40,343.40 110.11,339.45"/>
    </edge>
    <edge id=":n16_18" function="internal">
        <lane id=":n16_18_0" index="0" speed="9.84" length="17.98" shape="110.11,339.45 110.35,338.15 113.20,334.40 117.95,332.15 124.60,331.40"/>
    </edge>
    <edge id=":n16_5" function="internal">
        <lane id=":n16_5_0" index="0" speed="6.51" length="9.03" shape="124.60,337.80 122.15,338.15 120.40,339.20 119.35,340.95 119.00,343.40"/>
    </edge>
    <edge id=":n16_6" function="internal">
        <lane id=":n16_6_0" index="0" speed="11.11" length="27.20" shape="124.60,337.80 97.40,337.80"/>
        <lane id=":n16_6_1" index="1" speed="11.11" length="27.20" shape="124.60,334.60 97.40,334.60"/>
    </edge>
    <edge id=":n16_8" function="internal">
        <lane id=":n16_8_0" index="0" speed="9.84" length="6.30" shape="124.60,334.60 118.34,333.89"/>
    </edge>
    <edge id=":n16_19" function="internal">
        <lane id=":n16_19_0" index="0" speed="9.84" length="15.70" shape="118.34,333.89 117.95,333.85 113.20,331.60 110.35,327.85 109.40,322.60"/>
    </edge>
    <edge id=":n16_9" function="internal">
        <lane id=":n16_9_0" index="0" speed="6.51" length="9.03" shape="119.00,322.60 119.35,325.05 120.40,326.80 122.15,327.85 124.60,328.20"/>
    </edge>
    <edge id=":n16_10" function="internal">
        <lane id=":n16_10_0" index="0" speed="13.89" length="20.80" shape="119.00,322.60 119.00,343.40"/>
        <lane id=":n16_10_1" index="1" speed="13.89" length="20.80" shape="115.80,322.60 115.80,343.40"/>
        <lane id=":n16_10_2" index="2" speed="13.89" length="20.80" shape="112.60,322.60 112.60,343.40"/>
    </edge>
    <edge id=":n16_13" function="internal">
        <lane id=":n16_13_0" index="0" speed="9.84" length="4.01" shape="112.60,322.60 111.89,326.55"/>
    </edge>
    <edge id=":n16_20" function="internal">
        <lane id=":n16_20_0" index="0" speed="9.84" length="17.98" shape="111.89,326.55 111.65,327.85 108.80,331.60 104.05,333.85 97.40,334.60"/>
    </edge>
    <edge id=":n16_14" function="internal">
        <lane id=":n16_14_0" index="0" speed="6.51" length="9.03" shape="97.40,328.20 99.85,327.85 101.60,326.80 102.65,325.05 103.00,322.60"/>
    </edge>
    <edge id=":n16_15" function="internal">
        <lane id=":n16_15_0" index="0" speed="11.11" length="27.20" shape="97.40,328.20 124.60,328.20"/>
        <lane id=":n16_15_1" index="1" speed="11.11" length="27.20" shape="97.40,331.40 124.60,331.40"/>
    </edge>
    <edge id=":n16_17" function="internal">
        <lane id=":n16_17_0" index="0" speed="9.84" length="6.30" shape="97.40,331.40 103.66,332.11"/>
    </edge>
    <edge id=":n16_21" function="internal">
        <lane id=":n16_21_0" index="0" speed="9.84" length="15.70" shape="103.66,332.11 104.05,332.15 108.80,334.40 111.65,338.15 112.60,343.40"/>
    </edge>
    <edge id=":n17_0" function="internal">
        <lane id=":n17_0_0" index="0" speed="6.51" length="9.03" shape="103.00,398.90 102.65,396.45 101.60,394.70 99.85,393.65 97.40,393.30"/>
    </edge>
    <edge id=":n17_1" function="internal">
        <lane id=":n17_1_0" index="0" speed="13.89" length="20.80" shape="103.00,398.90 103.00,378.10"/>
        <lane id=":n17_1_1" index="1" speed="13.89" length="20.80" shape="106.20,398.90 106.20,378.10"/>
        <lane id=":n17_1_2" index="2" speed="13.89" length="20.80" shape="109.40,398.90 109.40,378.10"/>
    </edge>
    <edge id=":n17_4" function="internal">
        <lane id=":n17_4_0" index="0" speed="9.84" length="4.01" shape="109.40,398.90 110.11,394.95"/>
    </edge>
    <edge id=":n17_18" function="internal">
        <lane id=":n17_18_0" index="0" speed="9.84" length="17.98" shape="110.11,394.95 110.35,393.65 113.20,389.90 117.95,387.65 124.60,386.90"/>
    </edge>
    <edge id=":n17_5" function="internal">
        <lane id=":n17_5_0" index="0" speed="6.51" length="9.03" shape="124.60,393.30 122.15,393.65 120.40,394.70 119.35,396.45 119.00,398.90"/>
    </edge>
    <edge id=":n17_6" function="internal">
        <lane id=":n17_6_0" index="0" speed="11.11" length="27.20" shape="124.60,393.30 97.40,393.30"/>
        <lane id=":n17_6_1" index="1" speed="11.11" length="27.20" shape="124.60,390.10 97.40,390.10"/>
    </edge>
    <edge id=":n17_8" function="internal">
        <lane id=":n17_8_0" index="0" speed="9.84" length="6.30" shape="124.60,390.10 118.34,389.39"/>
    </edge>
    <edge id=":n17_19" function="internal">
        <lane id=":n17_19_0" index="0" speed="9.84" length="15.70" shape="118.34,389.39 117.95,389.35 113.20,387.10 110.35,383.35 109.40,378.10"/>
    </edge>
    <edge id=":n17_9" function="internal">
        <lane id=":n17_9_0" index="0" speed="6.51" length="9.03" shape="119.00,378.10 119.35,380.55 120.40,382.30 122.15,383.35 124.60,383.70"/>
    </edge>
    <edge id=":n17_10" function="internal">
        <lane id=":n17_10_0" index="0" speed="13.89" length="20.80" shape="119.00,378.10 119.00,398.90"/>
        <lane id=":n17_10_1" index="1" speed="13.89" length="20.80" shape="115.80,378.10 115.80,398.90"/>
        <lane id=":n17_10_2" index="2" speed="13.89" length="20.80" shape="112.60,378.10 112.60,398.90"/>
    </edge>
    <edge id=":n17_13" function="internal">
        <lane id=":n17_13_0" index="0" speed="9.84" length="4.01" shape="112.60,378.10 111.89,382.05"/>
    </edge>
    <edge id=":n17_20" function="internal">
        <lane id=":n17_20_0" index="0" speed="9.84" length="17.98" shape="111.89,382.05 111.65,383.35 108.80,387.10 104.05,389.35 97.40,390.10"/>
    </edge>
    <edge id=":n17_14" function="internal">
        <lane id=":n17_14_0" index="0" speed="6.51" length="9.03" shape="97.40,383.70 99.85,383.35 101.60,382.30 102.65,380.55 103.00,378.10"/>
    </edge>
    <edge id=":n17_15" function="internal">
        <lane id=":n17_15_0" index="0" speed="11.11" length="27.20" shape="97.40,383.70 124.60,383.70"/>
        <lane id=":n17_15_1" index="1" speed="11.11" length="27.20" shape="97.40,386.90 124.60,386.90"/>
    </edge>
    <edge id=":n17_17" function="internal">
        <lane id=":n17_17_0" index="0" speed="9.84" length="6.30" shape="97.40,386.90 103.66,387.61"/>
    </edge>
    <edge id=":n17_21" function="internal">