<?xml version="1.0" encoding="UTF-8"?>
<edges>
    <edge id="e0" from="n0" to="n1" numLanes="3" speed="13.89"/>
    <edge id="e1" from="n1" to="n0" numLanes="3" speed="13.89"/>
    <edge id="e2" from="n1" to="n2" numLanes="3" speed="13.89"/>
    <edge id="e3" from="n2" to="n1" numLanes="3" speed="13.89"/>
    <edge id="e4" from="n2" to="n3" numLanes="3" speed="13.89"/>
    <edge id="e5" from="n3" to="n2" numLanes="3" speed="13.89"/>
    <edge id="e6" from="n3" to="n4" numLanes="3" speed="13.89"/>
    <edge id="e7" from="n4" to="n3" numLanes="3" speed="13.89"/>
    <edge id="e8" from="n4" to="n5" numLanes="3" speed="13.89"/>
    <edge id="e9" from="n5" to="n4" numLanes="3" speed="13.89"/>
    <edge id="e10" from="n5" to="n6" numLanes="3" speed="13.89"/>
    <edge id="e11" from="n6" to="n5" numLanes="3" speed="13.89"/>
    <edge id="e12" from="n6" to="n7" numLanes="3" speed="13.89"/>
    <edge id="e13" from="n7" to="n6" numLanes="3" speed="13.89"/>
    <edge id="e14" from="n7" to="n8" numLanes="3" speed="13.89"/>
    <edge id="e15" from="n8" to="n7" numLanes="3" speed="13.89"/>
    <edge id="e16" from="n8" to="n9" numLanes="3" speed="13.89"/>
    <edge id="e17" from="n9" to="n8" numLanes="3" speed="13.89"/>
    <edge id="e18" from="n10" to="n11" numLanes="3" speed="13.89"/>
    <edge id="e19" from="n11" to="n10" numLanes="3" speed="13.89"/>
    <edge id="e20" from="n11" to="n12" numLanes="3" speed="13.89"/>
    <edge id="e21" from="n12" to="n11" numLanes="3" speed="13.89"/>
    <edge id="e22" from="n12" to="n13" numLanes="3" speed="13.89"/>
    <edge id="e23" from="n13" to="n12" numLanes="3" speed="13.89"/>
    <edge id="e24" from="n13" to="n14" numLanes="3" speed="13.89"/>
    <edge id="e25" from="n14" to="n13" numLanes="3" speed="13.89"/>
    <edge id="e26" from="n14" to="n15" numLanes="3" speed="13.89"/>
    <edge id="e27" from="n15" to="n14" numLanes="3" speed="13.89"/>
    <edge id="e28" from="n15" to="n16" numLanes="3" speed="13.89"/>
    <edge id="e29" from="n16" to="n15" numLanes="3" speed="13.89"/>
    <edge id="e30" from="n16" to="n17" numLanes="3" speed="13.89"/>
    <edge id="e31" from="n17" to="n16" numLanes="3" speed="13.89"/>
    <edge id="e32" from="n17" to="n18" numLanes="3" speed="13.89"/>
    <edge id="e33" from="n18" to="n17" numLanes="3" speed="13.89"/>
    <edge id="e34" from="n18" to="n19" numLanes="3" speed="13.89"/>
    <edge id="e35" from="n19" to="n18" numLanes="3" speed="13.89"/>
    <edge id="e36" from="n20" to="n21" numLanes="3" speed="13.89"/>
    <edge id="e37" from="n21" to="n20" numLanes="3" speed="13.89"/>
    <edge id="e38" from="n21" to="n22" numLanes="3" speed="13.89"/>
    <edge id="e39" from="n22" to="n21" numLanes="3" speed="13.89"/>
    <edge id="e40" from="n22" to="n23" numLanes="3" speed="13.89"/>
    <edge id="e41" from="n23" to="n22" numLanes="3" speed="13.89"/>
    <edge id="e42" from="n23" to="n24" numLanes="3" speed="13.89"/>
    <edge id="e43" from="n24" to="n23" numLanes="3" speed="13.89"/>
    <edge id="e44" from="n24" to="n25" numLanes="3" speed="13.89"/>
    <edge id="e45" from="n25" to="n24" numLanes="3" speed="13.89"/>
    <edge id="e46" from="n25" to="n26" numLanes="3" speed="13.89"/>
    <edge id="e47" from="n26" to="n25" numLanes="3" speed="13.89"/>
    <edge id="e48" from="n26" to="n27" numLanes="3" speed="13.89"/>
    <edge id="e49" from="n27" to="n26" numLanes="3" speed="13.89"/>
    <edge id="e50" from="n27" to="n28" numLanes="3" speed="13.89"/>
    <edge id="e51" from="n28" to="n27" numLanes="3" speed="13.89"/>
    <edge id="e52" from="n28" to="n29" numLanes="3" speed="13.89"/>
    <edge id="e53" from="n29" to="n28" numLanes="3" speed="13.89"/>
    <edge id="e54" from="n30" to="n31" numLanes="3" speed="13.89"/>
    <edge id="e55" from="n31" to="n30" numLanes="3" speed="13.89"/>
    <edge id="e56" from="n31" to="n32" numLanes="3" speed="13.89"/>
    <edge id="e57" from="n32" to="n31" numLanes="3" speed="13.89"/>
    <edge id="e58" from="n32" to="n33" numLanes="3" speed="13.89"/>
    <edge id="e59" from="n33" to="n32" numLanes="3" speed="13.89"/>
    <edge id="e60" from="n33" to="n34" numLanes="3" speed="13.89"/>
    <edge id="e61" from="n34" to="n33" numLanes="3" speed="13.89"/>
    <edge id="e62" from="n34" to="n35" numLanes="3" speed="13.89"/>
    <edge id="e63" from="n35" to="n34" numLanes="3" speed="13.89"/>
    <edge id="e64" from="n35" to="n36" numLanes="3" speed="13.89"/>
    <edge id="e65" from="n36" to="n35" numLanes="3" speed="13.89"/>
    <edge id="e66" from="n36" to="n37" numLanes="3" speed="13.89"/>
    <edge id="e67" from="n37" to="n36" numLanes="3" speed="13.89"/>
    <edge id="e68" from="n37" to="n38" numLanes="3" speed="13.89"/>
    <edge id="e69" from="n38" to="n37" numLanes="3" speed="13.89"/>
    <edge id="e70" from="n38" to="n39" numLanes="3" speed="13.89"/>
    <edge id="e71" from="n39" to="n38" numLanes="3" speed="13.89"/>
    <edge id="e72" from="n40" to="n41" numLanes="3" speed="13.89"/>
    <edge id="e73" from="n41" to="n40" numLanes="3" speed="13.89"/>
    <edge id="e74" from="n41" to="n42" numLanes="3" speed="13.89"/>
    <edge id="e75" from="n42" to="n41" numLanes="3" speed="13.89"/>
    <edge id="e76" from="n42" to="n43" numLanes="3" speed="13.89"/>
    <edge id="e77" from="n43" to="n42" numLanes="3" speed="13.89"/>
    <edge id="e78" from="n43" to="n44" numLanes="3" speed="13.89"/>
    <edge id="e79" from="n44" to="n43" numLanes="3" speed="13.89"/>
    <edge id="e80" from="n44" to="n45" numLanes="3" speed="13.89"/>
    <edge id="e81" from="n45" to="n44" numLanes="3" speed="13.89"/>
    <edge id="e82" from="n45" to="n46" numLanes="3" speed="13.89"/>
    <edge id="e83" from="n46" to="n45" numLanes="3" speed="13.89"/>
    <edge id="e84" from="n46" to="n47" numLanes="3" speed="13.89"/>
    <edge id="e85" from="n47" to="n46" numLanes="3" speed="13.89"/>
    <edge id="e86" from="n47" to="n48" numLanes="3" speed="13.89"/>
    <edge id="e87" from="n48" to="n47" numLanes="3" speed="13.89"/>
    <edge id="e88" from="n48" to="n49" numLanes="3" speed="13.89"/>
    <edge id="e89" from="n49" to="n48" numLanes="3" speed="13.89"/>
    <edge id="e90" from="n50" to="n51" numLanes="3" speed="13.89"/>
    <edge id="e91" from="n51" to="n50" numLanes="3" speed="13.89"/>
    <edge id="e92" from="n51" to="n52" numLanes="3" speed="13.89"/>
    <edge id="e93" from="n52" to="n51" numLanes="3" speed="13.89"/>
    <edge id="e94" from="n52" to="n53" numLanes="3" speed="13.89"/>
    <edge id="e95" from="n53" to="n52" numLanes="3" speed="13.89"/>
    <edge id="e96" from="n53" to="n54" numLanes="3" speed="13.89"/>
    <edge id="e97" from="n54" to="n53" numLanes="3" speed="13.89"/>
    <edge id="e98" from="n54" to="n55" numLanes="3" speed="13.89"/>
    <edge id="e99" from="n55" to="n54" numLanes="3" speed="13.89"/>
    <edge id="e100" from="n55" to="n56" numLanes="3" speed="13.89"/>
    <edge id="e101" from="n56" to="n55" numLanes="3" speed="13.89"/>
    <edge id="e102" from="n56" to="n57" numLanes="3" speed="13.89"/>
    <edge id="e103" from="n57" to="n56" numLanes="3" speed="13.89"/>
    <edge id="e104" from="n57" to="n58" numLanes="3" speed="13.89"/>
    <edge id="e105" from="n58" to="n57" numLanes="3" speed="13.89"/>
    <edge id="e106" from="n58" to="n59" numLanes="3" speed="13.89"/>
    <edge id="e107" from="n59" to="n58" numLanes="3" speed="13.89"/>
    <edge id="e108" from="n60" to="n61" numLanes="3" speed="13.89"/>
    <edge id="e109" from="n61" to="n60" numLanes="3" speed="13.89"/>
    <edge id="e110" from="n61" to="n62" numLanes="3" speed="13.89"/>
    <edge id="e111" from="n62" to="n61" numLanes="3" speed="13.89"/>
    <edge id="e112" from="n62" to="n63" numLanes="3" speed="13.89"/>
    <edge id="e113" from="n63" to="n62" numLanes="3" speed="13.89"/>
    <edge id="e114" from="n63" to="n64" numLanes="3" speed="13.89"/>
    <edge id="e115" from="n64" to="n63" numLanes="3" speed="13.89"/>
    <edge id="e116" from="n64" to="n65" numLanes="3" speed="13.89"/>
    <edge id="e117" from="n65" to="n64" numLanes="3" speed="13.89"/>
    <edge id="e118" from="n65" to="n66" numLanes="3" speed="13.89"/>
    <edge id="e119" from="n66" to="n65" numLanes="3" speed="13.89"/>
    <edge id="e120" from="n66" to="n67" numLanes="3" speed="13.89"/>
    <edge id="e121" from="n67" to="n66" numLanes="3" speed="13.89"/>
    <edge id="e122" from="n67" to="n68" numLanes="3" speed="13.89"/>
    <edge id="e123" from="n68" to="n67" numLanes="3" speed="13.89"/>
    <edge id="e124" from="n68" to="n69" numLanes="3" speed="13.89"/>
    <edge id="e125" from="n69" to="n68" numLanes="3" speed="13.89"/>
    <edge id="e126" from="n70" to="n71" numLanes="3" speed="13.89"/>
    <edge id="e127" from="n71" to="n70" numLanes="3" speed="13.89"/>
    <edge id="e128" from="n71" to="n72" numLanes="3" speed="13.89"/>
    <edge id="e129" from="n72" to="n71" numLanes="3" speed="13.89"/>
    <edge id="e130" from="n72" to="n73" numLanes="3" speed="13.89"/>
    <edge id="e131" from="n73" to="n72" numLanes="3" speed="13.89"/>
    <edge id="e132" from="n73" to="n74" numLanes="3" speed="13.89"/>
    <edge id="e133" from="n74" to="n73" numLanes="3" speed="13.89"/>
    <edge id="e134" from="n74" to="n75" numLanes="3" speed="13.89"/>
    <edge id="e135" from="n75" to="n74" numLanes="3" speed="13.89"/>
    <edge id="e136" from="n75" to="n76" numLanes="3" speed="13.89"/>
    <edge id="e137" from="n76" to="n75" numLanes="3" speed="13.89"/>
    <edge id="e138" from="n76" to="n77" numLanes="3" speed="13.89"/>
    <edge id="e139" from="n77" to="n76" numLanes="3" speed="13.89"/>
    <edge id="e140" from="n77" to="n78" numLanes="3" speed="13.89"/>
    <edge id="e141" from="n78" to="n77" numLanes="3" speed="13.89"/>
    <edge id="e142" from="n78" to="n79" numLanes="3" speed="13.89"/>
    <edge id="e143" from="n79" to="n78" numLanes="3" speed="13.89"/>
    <edge id="e144" from="n80" to="n81" numLanes="3" speed="13.89"/>
    <edge id="e145" from="n81" to="n80" numLanes="3" speed="13.89"/>
    <edge id="e146" from="n81" to="n82" numLanes="3" speed="13.89"/>
    <edge id="e147" from="n82" to="n81" numLanes="3" speed="13.89"/>
    <edge id="e148" from="n82" to="n83" numLanes="3" speed="13.89"/>
    <edge id="e149" from="n83" to="n82" numLanes="3" speed="13.89"/>
    <edge id="e150" from="n83" to="n84" numLanes="3" speed="13.89"/>
    <edge id="e151" from="n84" to="n83" numLanes="3" speed="13.89"/>
    <edge id="e152" from="n84" to="n85" numLanes="3" speed="13.89"/>
    <edge id="e153" from="n85" to="n84" numLanes="3" speed="13.89"/>
    <edge id="e154" from="n85" to="n86" numLanes="3" speed="13.89"/>
    <edge id="e155" from="n86" to="n85" numLanes="3" speed="13.89"/>
    <edge id="e156" from="n86" to="n87" numLanes="3" speed="13.89"/>
    <edge id="e157" from="n87" to="n86" numLanes="3" speed="13.89"/>
    <edge id="e158" from="n87" to="n88" numLanes="3" speed="13.89"/>
    <edge id="e159" from="n88" to="n87" numLanes="3" speed="13.89"/>
    <edge id="e160" from="n88" to="n89" numLanes="3" speed="13.89"/>
    <edge id="e161" from="n89" to="n88" numLanes="3" speed="13.89"/>
    <edge id="e162" from="n90" to="n91" numLanes="3" speed="13.89"/>
    <edge id="e163" from="n91" to="n90" numLanes="3" speed="13.89"/>
    <edge id="e164" from="n91" to="n92" numLanes="3" speed="13.89"/>
    <edge id="e165" from="n92" to="n91" numLanes="3" speed="13.89"/>
    <edge id="e166" from="n92" to="n93" numLanes="3" speed="13.89"/>
    <edge id="e167" from="n93" to="n92" numLanes="3" speed="13.89"/>
    <edge id="e168" from="n93" to="n94" numLanes="3" speed="13.89"/>
    <edge id="e169" from="n94" to="n93" numLanes="3" speed="13.89"/>
    <edge id="e170" from="n94" to="n95" numLanes="3" speed="13.89"/>
    <edge id="e171" from="n95" to="n94" numLanes="3" speed="13.89"/>
    <edge id="e172" from="n95" to="n96" numLanes="3" speed="13.89"/>
    <edge id="e173" from="n96" to="n95" numLanes="3" speed="13.89"/>
    <edge id="e174" from="n96" to="n97" numLanes="3" speed="13.89"/>
    <edge id="e175" from="n97" to="n96" numLanes="3" speed="13.89"/>
    <edge id="e176" from="n97" to="n98" numLanes="3" speed="13.89"/>
    <edge id="e177" from="n98" to="n97" numLanes="3" speed="13.89"/>
    <edge id="e178" from="n98" to="n99" numLanes="3" speed="13.89"/>
    <edge id="e179" from="n99" to="n98" numLanes="3" speed="13.89"/>
    <edge id="e180" from="n0" to="n10" numLanes="2" speed="11.11"/>
    <edge id="e181" from="n10" to="n0" numLanes="2" speed="11.11"/>
    <edge id="e182" from="n10" to="n20" numLanes="2" speed="11.11"/>
    <edge id="e183" from="n20" to="n10" numLanes="2" speed="11.11"/>
    <edge id="e184" from="n20" to="n30" numLanes="2" speed="11.11"/>
    <edge id="e185" from="n30" to="n20" numLanes="2" speed="11.11"/>
    <edge id="e186" from="n30" to="n40" numLanes="2" speed="11.11"/>
    <edge id="e187" from="n40" to="n30" numLanes="2" speed="11.11"/>
    <edge id="e188" from="n40" to="n50" numLanes="2" speed="11.11"/>
    <edge id="e189" from="n50" to="n40" numLanes="2" speed="11.11"/>
    <edge id="e190" from="n50" to="n60" numLanes="2" speed="11.11"/>
    <edge id="e191" from="n60" to="n50" numLanes="2" speed="11.11"/>
    <edge id="e192" from="n60" to="n70" numLanes="2" speed="11.11"/>
    <edge id="e193" from="n70" to="n60" numLanes="2" speed="11.11"/>
    <edge id="e194" from="n70" to="n80" numLanes="2" speed="11.11"/>
    <edge id="e195" from="n80" to="n70" numLanes="2" speed="11.11"/>
    <edge id="e196" from="n80" to="n90" numLanes="2" speed="11.11"/>
    <edge id="e197" from="n90" to="n80" numLanes="2" speed="11.11"/>
    <edge id="e198" from="n1" to="n11" numLanes="2" speed="11.11"/>
    <edge id="e199" from="n11" to="n1" numLanes="2" speed="11.11"/>
    <edge id="e200" from="n11" to="n21" numLanes="2" speed="11.11"/>
    <edge id="e201" from="n21" to="n11" numLanes="2" speed="11.11"/>
    <edge id="e202" from="n21" to="n31" numLanes="2" speed="11.11"/>
    <edge id="e203" from="n31" to="n21" numLanes="2" speed="11.11"/>
    <edge id="e204" from="n31" to="n41" numLanes="2" speed="11.11"/>
    <edge id="e205" from="n41" to="n31" numLanes="2" speed="11.11"/>
    <edge id="e206" from="n41" to="n51" numLanes="2" speed="11.11"/>
    <edge id="e207" from="n51" to="n41" numLanes="2" speed="11.11"/>
    <edge id="e208" from="n51" to="n61" numLanes="2" speed="11.11"/>
    <edge id="e209" from="n61" to="n51" numLanes="2" speed="11.11"/>
    <edge id="e210" from="n61" to="n71" numLanes="2" speed="11.11"/>
    <edge id="e211" from="n71" to="n61" numLanes="2" speed="11.11"/>
    <edge id="e212" from="n71" to="n81" numLanes="2" speed="11.11"/>
    <edge id="e213" from="n81" to="n71" numLanes="2" speed="11.11"/>
    <edge id="e214" from="n81" to="n91" numLanes="2" speed="11.11"/>
    <edge id="e215" from="n91" to="n81" numLanes="2" speed="11.11"/>
    <edge id="e216" from="n2" to="n12" numLanes="2" speed="11.11"/>
    <edge id="e217" from="n12" to="n2" numLanes="2" speed="11.11"/>
    <edge id="e218" from="n12" to="n22" numLanes="2" speed="11.11"/>
    <edge id="e219" from="n22" to="n12" numLanes="2" speed="11.11"/>
    <edge id="e220" from="n22" to="n32" numLanes="2" speed="11.11"/>
    <edge id="e221" from="n32" to="n22" numLanes="2" speed="11.11"/>
    <edge id="e222" from="n32" to="n42" numLanes="2" speed="11.11"/>
    <edge id="e223" from="n42" to="n32" numLanes="2" speed="11.11"/>
    <edge id="e224" from="n42" to="n52" numLanes="2" speed="11.11"/>
    <edge id="e225" from="n52" to="n42" numLanes="2" speed="11.11"/>
    <edge id="e226" from="n52" to="n62" numLanes="2" speed="11.11"/>
    <edge id="e227" from="n62" to="n52" numLanes="2" speed="11.11"/>
    <edge id="e228" from="n62" to="n72" numLanes="2" speed="11.11"/>
    <edge id="e229" from="n72" to="n62" numLanes="2" speed="11.11"/>
    <edge id="e230" from="n72" to="n82" numLanes="2" speed="11.11"/>
    <edge id="e231" from="n82" to="n72" numLanes="2" speed="11.11"/>
    <edge id="e232" from="n82" to="n92" numLanes="2" speed="11.11"/>
    <edge id="e233" from="n92" to="n82" numLanes="2" speed="11.11"/>
    <edge id="e234" from="n3" to="n13" numLanes="2" speed="11.11"/>
    <edge id="e235" from="n13" to="n3" numLanes="2" speed="11.11"/>
    <edge id="e236" from="n13" to="n23" numLanes="2" speed="11.11"/>
    <edge id="e237" from="n23" to="n13" numLanes="2" speed="11.11"/>
    <edge id="e238" from="n23" to="n33" numLanes="2" speed="11.11"/>
    <edge id="e239" from="n33" to="n23" numLanes="2" speed="11.11"/>
    <edge id="e240" from="n33" to="n43" numLanes="2" speed="11.11"/>
    <edge id="e241" from="n43" to="n33" numLanes="2" speed="11.11"/>
    <edge id="e242" from="n43" to="n53" numLanes="2" speed="11.11"/>
    <edge id="e243" from="n53" to="n43" numLanes="2" speed="11.11"/>
    <edge id="e244" from="n53" to="n63" numLanes="2" speed="11.11"/>
    <edge id="e245" from="n63" to="n53" numLanes="2" speed="11.11"/>
    <edge id="e246" from="n63" to="n73" numLanes="2" speed="11.11"/>
    <edge id="e247" from="n73" to="n63" numLanes="2" speed="11.11"/>
    <edge id="e248" from="n73" to="n83" numLanes="2" speed="11.11"/>
    <edge id="e249" from="n83" to="n73" numLanes="2" speed="11.11"/>
    <edge id="e250" from="n83" to="n93" numLanes="2" speed="11.11"/>
    <edge id="e251" from="n93" to="n83" numLanes="2" speed="11.11"/>
    <edge id="e252" from="n4" to="n14" numLanes="2" speed="11.11"/>
    <edge id="e253" from="n14" to="n4" numLanes="2" speed="11.11"/>
    <edge id="e254" from="n14" to="n24" numLanes="2" speed="11.11"/>
    <edge id="e255" from="n24" to="n14" numLanes="2" speed="11.11"/>
    <edge id="e256" from="n24" to="n34" numLanes="2" speed="11.11"/>
    <edge id="e257" from="n34" to="n24" numLanes="2" speed="11.11"/>
    <edge id="e258" from="n34" to="n44" numLanes="2" speed="11.11"/>
    <edge id="e259" from="n44" to="n34" numLanes="2" speed="11.11"/>
    <edge id="e260" from="n44" to="n54" numLanes="2" speed="11.11"/>
    <edge id="e261" from="n54" to="n44" numLanes="2" speed="11.11"/>
    <edge id="e262" from="n54" to="n64" numLanes="2" speed="11.11"/>
    <edge id="e263" from="n64" to="n54" numLanes="2" speed="11.11"/>
    <edge id="e264" from="n64" to="n74" numLanes="2" speed="11.11"/>
    <edge id="e265" from="n74" to="n64" numLanes="2" speed="11.11"/>
    <edge id="e266" from="n74" to="n84" numLanes="2" speed="11.11"/>
    <edge id="e267" from="n84" to="n74" numLanes="2" speed="11.11"/>
    <edge id="e268" from="n84" to="n94" numLanes="2" speed="11.11"/>
    <edge id="e269" from="n94" to="n84" numLanes="2" speed="11.11"/>
    <edge id="e270" from="n5" to="n15" numLanes="2" speed="11.11"/>
    <edge id="e271" from="n15" to="n5" numLanes="2" speed="11.11"/>
    <edge id="e272" from="n15" to="n25" numLanes="2" speed="11.11"/>
    <edge id="e273" from="n25" to="n15" numLanes="2" speed="11.11"/>
    <edge id="e274" from="n25" to="n35" numLanes="2" speed="11.11"/>
    <edge id="e275" from="n35" to="n25" numLanes="2" speed="11.11"/>
    <edge id="e276" from="n35" to="n45" numLanes="2" speed="11.11"/>
    <edge id="e277" from="n45" to="n35" numLanes="2" speed="11.11"/>
    <edge id="e278" from="n45" to="n55" numLanes="2" speed="11.11"/>
    <edge id="e279" from="n55" to="n45" numLanes="2" speed="11.11"/>
    <edge id="e280" from="n55" to="n65" numLanes="2" speed="11.11"/>
    <edge id="e281" from="n65" to="n55" numLanes="2" speed="11.11"/>
    <edge id="e282" from="n65" to="n75" numLanes="2" speed="11.11"/>
    <edge id="e283" from="n75" to="n65" numLanes="2" speed="11.11"/>
    <edge id="e284" from="n75" to="n85" numLanes="2" speed="11.11"/>
    <edge id="e285" from="n85" to="n75" numLanes="2" speed="11.11"/>
    <edge id="e286" from="n85" to="n95" numLanes="2" speed="11.11"/>
    <edge id="e287" from="n95" to="n85" numLanes="2" speed="11.11"/>
    <edge id="e288" from="n6" to="n16" numLanes="2" speed="11.11"/>
    <edge id="e289" from="n16" to="n6" numLanes="2" speed="11.11"/>
    <edge id="e290" from="n16" to="n26" numLanes="2" speed="11.11"/>
    <edge id="e291" from="n26" to="n16" numLanes="2" speed="11.11"/>
    <edge id="e292" from="n26" to="n36" numLanes="2" speed="11.11"/>
    <edge id="e293" from="n36" to="n26" numLanes="2" speed="11.11"/>
    <edge id="e294" from="n36" to="n46" numLanes="2" speed="11.11"/>
    <edge id="e295" from="n46" to="n36" numLanes="2" speed="11.11"/>
    <edge id="e296" from="n46" to="n56" numLanes="2" speed="11.11"/>
    <edge id="e297" from="n56" to="n46" numLanes="2" speed="11.11"/>
    <edge id="e298" from="n56" to="n66" numLanes="2" speed="11.11"/>
    <edge id="e299" from="n66" to="n56" numLanes="2" speed="11.11"/>
    <edge id="e300" from="n66" to="n76" numLanes="2" speed="11.11"/>
    <edge id="e301" from="n76" to="n66" numLanes="2" speed="11.11"/>
    <edge id="e302" from="n76" to="n86" numLanes="2" speed="11.11"/>
    <edge id="e303" from="n86" to="n76" numLanes="2" speed="11.11"/>
    <edge id="e304" from="n86" to="n96" numLanes="2" speed="11.11"/>
    <edge id="e305" from="n96" to="n86" numLanes="2" speed="11.11"/>
    <edge id="e306" from="n7" to="n17" numLanes="2" speed="11.11"/>
    <edge id="e307" from="n17" to="n7" numLanes="2" speed="11.11"/>
    <edge id="e308" from="n17" to="n27" numLanes="2" speed="11.11"/>
    <edge id="e309" from="n27" to="n17" numLanes="2" speed="11.11"/>
    <edge id="e310" from="n27" to="n37" numLanes="2" speed="11.11"/>
    <edge id="e311" from="n37" to="n27" numLanes="2" speed="11.11"/>
    <edge id="e312" from="n37" to="n47" numLanes="2" speed="11.11"/>
    <edge id="e313" from="n47" to="n37" numLanes="2" speed="11.11"/>
    <edge id="e314" from="n47" to="n57" numLanes="2" speed="11.11"/>
    <edge id="e315" from="n57" to="n47" numLanes="2" speed="11.11"/>
    <edge id="e316" from="n57" to="n67" numLanes="2" speed="11.11"/>
    <edge id="e317" from="n67" to="n57" numLanes="2" speed="11.11"/>
    <edge id="e318" from="n67" to="n77" numLanes="2" speed="11.11"/>
    <edge id="e319" from="n77" to="n67" numLanes="2" speed="11.11"/>
    <edge id="e320" from="n77" to="n87" numLanes="2" speed="11.11"/>
    <edge id="e321" from="n87" to="n77" numLanes="2" speed="11.11"/>
    <edge id="e322" from="n87" to="n97" numLanes="2" speed="11.11"/>
    <edge id="e323" from="n97" to="n87" numLanes="2" speed="11.11"/>
    <edge id="e324" from="n8" to="n18" numLanes="2" speed="11.11"/>
    <edge id="e325" from="n18" to="n8" numLanes="2" speed="11.11"/>
    <edge id="e326" from="n18" to="n28" numLanes="2" speed="11.11"/>
    <edge id="e327" from="n28" to="n18" numLanes="2" speed="11.11"/>
    <edge id="e328" from="n28" to="n38" numLanes="2" speed="11.11"/>
    <edge id="e329" from="n38" to="n28" numLanes="2" speed="11.11"/>
    <edge id="e330" from="n38" to="n48" numLanes="2" speed="11.11"/>
    <edge id="e331" from="n48" to="n38" numLanes="2" speed="11.11"/>
    <edge id="e332" from="n48" to="n58" numLanes="2" speed="11.11"/>
    <edge id="e333" from="n58" to="n48" numLanes="2" speed="11.11"/>
    <edge id="e334" from="n58" to="n68" numLanes="2" speed="11.11"/>
    <edge id="e335" from="n68" to="n58" numLanes="2" speed="11.11"/>
    <edge id="e336" from="n68" to="n78" numLanes="2" speed="11.11"/>
    <edge id="e337" from="n78" to="n68" numLanes="2" speed="11.11"/>
    <edge id="e338" from="n78" to="n88" numLanes="2" speed="11.11"/>
    <edge id="e339" from="n88" to="n78" numLanes="2" speed="11.11"/>
    <edge id="e340" from="n88" to="n98" numLanes="2" speed="11.11"/>
    <edge id="e341" from="n98" to="n88" numLanes="2" speed="11.11"/>
    <edge id="e342" from="n9" to="n19" numLanes="2" speed="11.11"/>
    <edge id="e343" from="n19" to="n9" numLanes="2" speed="11.11"/>
    <edge id="e344" from="n19" to="n29" numLanes="2" speed="11.11"/>
    <edge id="e345" from="n29" to="n19" numLanes="2" speed="11.11"/>
    <edge id="e346" from="n29" to="n39" numLanes="2" speed="11.11"/>
    <edge id="e347" from="n39" to="n29" numLanes="2" speed="11.11"/>
    <edge id="e348" from="n39" to="n49" numLanes="2" speed="11.11"/>
    <edge id="e349" from="n49" to="n39" numLanes="2" speed="11.11"/>
    <edge id="e350" from="n49" to="n59" numLanes="2" speed="11.11"/>
    <edge id="e351" from="n59" to="n49" numLanes="2" speed="11.11"/>
    <edge id="e352" from="n59" to="n69" numLanes="2" speed="11.11"/>
    <edge id="e353" from="n69" to="n59" numLanes="2" speed="11.11"/>
    <edge id="e354" from="n69" to="n79" numLanes="2" speed="11.11"/>
    <edge id="e355" from="n79" to="n69" numLanes="2" speed="11.11"/>
    <edge id="e356" from="n79" to="n89" numLanes="2" speed="11.11"/>
    <edge id="e357" from="n89" to="n79" numLanes="2" speed="11.11"/>
    <edge id="e358" from="n89" to="n99" numLanes="2" speed="11.11"/>
    <edge id="e359" from="n99" to="n89" numLanes="2" speed="11.11"/>
</edges>