<?xml version="1.0" encoding="UTF-8"?>

<!-- generated on 2025-08-25 17:31:47 by Eclipse SUMO netconvert Version 1.24.0
<netconvertConfiguration xmlns:xsi="http://www.w3.org/2001/XMLSchema-instance" xsi:noNamespaceSchemaLocation="http://sumo.dlr.de/xsd/netconvertConfiguration.xsd">

    <input>
        <node-files value="data/sumo/nodes.nod.xml"/>
        <edge-files value="data/sumo/edges.edg.xml"/>
        <type-files value="data/sumo/types.typ.xml"/>
    </input>

    <output>
        <output-file value="data/sumo/network.net.xml"/>
    </output>

    <processing>
        <offset.disable-normalization value="true"/>
        <lefthand value="false"/>
    </processing>

    <junctions>
        <no-turnarounds value="true"/>
        <junctions.corner-detail value="5"/>
        <rectangular-lane-cut value="true"/>
    </junctions>

    <pedestrian>
        <crossings.guess value="true"/>
        <walkingareas value="true"/>
    </pedestrian>

</netconvertConfiguration>
-->

<net version="1.20" junctionCornerDetail="5" rectangularLaneCut="true" walkingareas="true" limitTurnSpeed="5.50" xmlns:xsi="http://www.w3.org/2001/XMLSchema-instance" xsi:noNamespaceSchemaLocation="http://sumo.dlr.de/xsd/net_file.xsd">

    <location netOffset="0.00,0.00" convBoundary="-8212856.70,4523549.70,-8211047.40,4524515.40" origBoundary="-8212856.70,4523549.70,-8211047.40,4524515.40" projParameter="!"/>

    <type id="avenue" priority="10" numLanes="3" speed="13.89" width="3.50" sidewalkWidth="3.00"/>
    <type id="street" priority="5" numLanes="2" speed="11.11" width="3.00" sidewalkWidth="2.00"/>

    <edge id=":0_0" function="internal">
        <lane id=":0_0_0" index="0" disallow="pedestrian" speed="11.31" length="29.46" width="3.50" shape="-8212861.20,4523562.70 -8212860.29,4523553.18 -8212857.57,4523546.39 -8212853.04,4523542.31 -8212846.70,4523540.95"/>
        <lane id=":0_0_1" index="1" disallow="pedestrian" speed="10.29" length="24.24" width="3.50" shape="-8212858.20,4523562.70 -8212857.48,4523554.72 -8212855.32,4523549.01 -8212851.73,4523545.59 -8212846.70,4523544.45"/>
        <lane id=":0_0_2" index="2" disallow="pedestrian" speed="9.66" length="21.23" width="3.50" shape="-8212858.20,4523562.70 -8212857.48,4523556.25 -8212855.32,4523551.64 -8212851.73,4523548.87 -8212846.70,4523547.95"/>
    </edge>
    <edge id=":0_3" function="internal">
        <lane id=":0_3_0" index="0" disallow="pedestrian" speed="6.43" length="4.58" width="3.00" shape="-8212846.70,4523557.20 -8212849.11,4523557.54 -8212850.82,4523558.58 -8212850.90,4523558.70"/>
        <lane id=":0_3_1" index="1" disallow="pedestrian" speed="7.86" length="9.62" width="3.00" shape="-8212846.70,4523554.20 -8212850.42,4523554.73 -8212853.07,4523556.33 -8212854.50,4523558.70"/>
    </edge>
    <edge id=":0_5" function="internal">
        <lane id=":0_5_0" index="0" disallow="pedestrian" speed="6.43" length="4.29" width="3.00" shape="-8212850.90,4523558.70 -8212851.86,4523560.29 -8212852.20,4523562.70"/>
        <lane id=":0_5_1" index="0" disallow="pedestrian" speed="7.86" length="4.08" width="3.00" shape="-8212854.50,4523558.70 -8212854.67,4523558.98 -8212855.20,4523562.70"/>
    </edge>
    <edge id=":0_c0" function="crossing" crossingEdges="e1 e1_r">
        <lane id=":0_c0_0" index="0" allow="pedestrian" speed="2.78" length="12.00" width="4.00" shape="-8212850.70,4523560.70 -8212862.70,4523560.70" outlineShape="-8212850.60,4523562.70 -8212862.80,4523562.70 -8212862.45,4523558.70 -8212846.70,4523558.70 -8212847.92,4523558.81 -8212848.92,4523559.14 -8212849.70,4523559.70 -8212850.26,4523560.48 -8212850.59,4523561.48"/>
    </edge>
    <edge id=":0_w0" function="walkingarea">
        <lane id=":0_w0_0" index="0" allow="pedestrian" speed="2.78" length="20.16" width="4.00" shape="-8212846.70,4523539.20 -8212846.70,4523536.20 -8212852.20,4523536.94 -8212856.70,4523539.14 -8212860.20,4523542.83 -8212862.70,4523547.98 -8212864.20,4523554.60 -8212864.70,4523562.70 -8212862.70,4523562.70 -8212862.26,4523555.52 -8212860.92,4523549.64 -8212858.70,4523545.08 -8212855.59,4523541.81 -8212851.59,4523539.85"/>
    </edge>
    <edge id=":0_w1" function="walkingarea">
        <lane id=":0_w1_0" index="0" allow="pedestrian" speed="2.78" length="3.53" width="4.00" shape="-8212850.70,4523562.70 -8212848.70,4523562.70 -8212846.70,4523560.70 -8212846.70,4523558.70 -8212847.92,4523558.81 -8212848.92,4523559.14 -8212849.70,4523559.70 -8212850.26,4523560.48 -8212850.59,4523561.48"/>
    </edge>
    <edge id=":1_0" function="internal">
        <lane id=":1_0_0" index="0" disallow="pedestrian" speed="6.43" length="8.87" width="3.00" shape="-8212680.27,4523562.70 -8212680.61,4523560.29 -8212681.64,4523558.58 -8212683.36,4523557.54 -8212685.77,4523557.20"/>
    </edge>
    <edge id=":1_1" function="internal">
        <lane id=":1_1_0" index="0" disallow="pedestrian" speed="10.29" length="24.24" width="3.50" shape="-8212677.27,4523562.70 -8212676.55,4523554.72 -8212674.39,4523549.01 -8212670.80,4523545.59 -8212665.77,4523544.45"/>
        <lane id=":1_1_1" index="1" disallow="pedestrian" speed="9.66" length="21.23" width="3.50" shape="-8212677.27,4523562.70 -8212676.55,4523556.25 -8212674.39,4523551.64 -8212670.80,4523548.87 -8212665.77,4523547.95"/>
    </edge>
    <edge id=":1_3" function="internal">
        <lane id=":1_3_0" index="0" disallow="pedestrian" speed="6.43" length="4.58" width="3.00" shape="-8212665.77,4523557.20 -8212668.18,4523557.54 -8212669.89,4523558.58 -8212669.97,4523558.70"/>
    </edge>
    <edge id=":1_4" function="internal">
        <lane id=":1_4_0" index="0" disallow="pedestrian" speed="13.89" length="20.00" width="3.00" shape="-8212665.77,4523557.20 -8212685.77,4523557.20"/>
        <lane id=":1_4_1" index="1" disallow="pedestrian" speed="13.89" length="20.00" width="3.00" shape="-8212665.77,4523554.20 -8212685.77,4523554.20"/>
        <lane id=":1_4_2" index="2" disallow="pedestrian" speed="13.89" length="20.00" width="3.00" shape="-8212665.77,4523551.20 -8212685.77,4523551.20"/>
    </edge>
    <edge id=":1_11" function="internal">
        <lane id=":1_11_0" index="0" disallow="pedestrian" speed="6.43" length="4.29" width="3.00" shape="-8212669.97,4523558.70 -8212670.93,4523560.29 -8212671.27,4523562.70"/>
    </edge>
    <edge id=":1_7" function="internal">
        <lane id=":1_7_0" index="0" disallow="pedestrian" speed="13.89" length="20.00" width="3.50" shape="-8212685.77,4523540.95 -8212665.77,4523540.95"/>
        <lane id=":1_7_1" index="1" disallow="pedestrian" speed="13.89" length="20.00" width="3.50" shape="-8212685.77,4523544.45 -8212665.77,4523544.45"/>
        <lane id=":1_7_2" index="2" disallow="pedestrian" speed="13.89" length="20.00" width="3.50" shape="-8212685.77,4523547.95 -8212665.77,4523547.95"/>
    </edge>
    <edge id=":1_10" function="internal">
        <lane id=":1_10_0" index="0" disallow="pedestrian" speed="9.70" length="4.80" width="3.00" shape="-8212685.77,4523547.95 -8212681.05,4523548.81"/>
    </edge>
    <edge id=":1_12" function="internal">
        <lane id=":1_12_0" index="0" disallow="pedestrian" speed="9.70" length="16.43" width="3.00" shape="-8212681.05,4523548.81 -8212680.74,4523548.87 -8212677.14,4523551.64 -8212674.99,4523556.25 -8212674.27,4523562.70"/>
    </edge>
    <edge id=":1_c0" function="crossing" crossingEdges="e3 e3_r">
        <lane id=":1_c0_0" index="0" allow="pedestrian" speed="2.78" length="12.00" width="4.00" shape="-8212669.77,4523560.70 -8212681.77,4523560.70" outlineShape="-8212669.67,4523562.70 -8212681.87,4523562.70 -8212685.77,4523558.70 -8212685.77,4523560.70 -8212683.77,4523562.70 -8212681.77,4523562.70 -8212685.77,4523558.70 -8212665.77,4523558.70 -8212666.99,4523558.81 -8212667.99,4523559.14 -8212668.77,4523559.70 -8212669.33,4523560.48 -8212669.66,4523561.48"/>
    </edge>
    <edge id=":1_c1" function="crossing" crossingEdges="e2 e2_r">
        <lane id=":1_c1_0" index="0" allow="pedestrian" speed="2.78" length="19.50" width="4.00" shape="-8212667.77,4523539.20 -8212667.77,4523558.70" outlineShape="-8212665.77,4523539.10 -8212665.77,4523558.80 -8212669.77,4523562.70 -8212667.77,4523562.70 -8212665.77,4523560.70 -8212665.77,4523558.70 -8212669.77,4523562.70 -8212669.77,4523539.20"/>
    </edge>
    <edge id=":1_c2" function="crossing" crossingEdges="e0_r e0">
        <lane id=":1_c2_0" index="0" allow="pedestrian" speed="2.78" length="19.50" width="4.00" shape="-8212683.77,4523558.70 -8212683.77,4523539.20" outlineShape="-8212685.77,4523558.80 -8212685.77,4523539.10 -8212681.77,4523539.20 -8212681.77,4523562.70 -8212681.88,4523561.48 -8212682.21,4523560.48 -8212682.77,4523559.70 -8212683.55,4523559.14 -8212684.55,4523558.81"/>
    </edge>
    <edge id=":1_w0" function="walkingarea">
        <lane id=":1_w0_0" index="0" allow="pedestrian" speed="2.78" length="3.30" width="4.00" shape="-8212685.77,4523558.70 -8212685.77,4523560.70 -8212683.77,4523562.70 -8212681.77,4523562.70 -8212681.88,4523561.48 -8212682.21,4523560.48 -8212682.77,4523559.70 -8212683.55,4523559.14 -8212684.55,4523558.81"/>
    </edge>
    <edge id=":1_w1" function="walkingarea">
        <lane id=":1_w1_0" index="0" allow="pedestrian" speed="2.78" length="3.30" width="4.00" shape="-8212669.77,4523562.70 -8212667.77,4523562.70 -8212665.77,4523560.70 -8212665.77,4523558.70 -8212666.99,4523558.81 -8212667.99,4523559.14 -8212668.77,4523559.70 -8212669.33,4523560.48 -8212669.66,4523561.48"/>
    </edge>
    <edge id=":1_w2" function="walkingarea">
        <lane id=":1_w2_0" index="0" allow="pedestrian" speed="2.78" length="12.85" width="4.00" shape="-8212669.77,4523539.20 -8212665.77,4523539.20 -8212665.77,4523536.20 -8212685.77,4523536.20 -8212685.77,4523539.20 -8212681.77,4523539.20"/>
    </edge>
    <edge id=":10_0" function="internal">
        <lane id=":10_0_0" index="0" disallow="pedestrian" speed="6.43" length="8.87" width="3.00" shape="-8211051.90,4523562.70 -8211052.24,4523560.29 -8211053.27,4523558.58 -8211054.99,4523557.54 -8211057.40,4523557.20"/>
        <lane id=":10_0_1" index="1" disallow="pedestrian" speed="7.86" length="13.71" width="3.00" shape="-8211048.90,4523562.70 -8211049.43,4523558.98 -8211051.02,4523556.33 -8211053.68,4523554.73 -8211057.40,4523554.20"/>
        <lane id=":10_0_2" index="2" disallow="pedestrian" speed="8.50" length="16.20" width="3.00" shape="-8211048.90,4523562.70 -8211049.43,4523557.67 -8211051.02,4523554.08 -8211053.68,4523551.92 -8211057.40,4523551.20"/>
    </edge>
    <edge id=":10_3" function="internal">
        <lane id=":10_3_0" index="0" disallow="pedestrian" speed="11.34" length="29.46" width="3.00" shape="-8211057.40,4523540.95 -8211051.06,4523542.31 -8211046.52,4523546.39 -8211043.81,4523553.18 -8211042.90,4523562.70"/>
        <lane id=":10_3_1" index="1" disallow="pedestrian" speed="10.33" length="24.24" width="3.00" shape="-8211057.40,4523544.45 -8211052.37,4523545.59 -8211048.77,4523549.01 -8211046.62,4523554.72 -8211045.90,4523562.70"/>
    </edge>
    <edge id=":10_c0" function="crossing" crossingEdges="e20 e20_r">
        <lane id=":10_c0_0" index="0" allow="pedestrian" speed="2.78" length="12.00" width="4.00" shape="-8211041.40,4523560.70 -8211053.40,4523560.70" outlineShape="-8211041.30,4523562.70 -8211053.50,4523562.70 -8211057.40,4523558.70 -8211057.40,4523560.70 -8211055.40,4523562.70 -8211053.40,4523562.70 -8211057.40,4523558.70 -8211041.65,4523558.70"/>
    </edge>
    <edge id=":10_w0" function="walkingarea">
        <lane id=":10_w0_0" index="0" allow="pedestrian" speed="2.78" length="3.53" width="4.00" shape="-8211057.40,4523558.70 -8211057.40,4523560.70 -8211055.40,4523562.70 -8211053.40,4523562.70 -8211053.51,4523561.48 -8211053.84,4523560.48 -8211054.40,4523559.70 -8211055.18,4523559.14 -8211056.18,4523558.81"/>
    </edge>
    <edge id=":10_w1" function="walkingarea">
        <lane id=":10_w1_0" index="0" allow="pedestrian" speed="2.78" length="20.16" width="4.00" shape="-8211041.40,4523562.70 -8211039.40,4523562.70 -8211039.90,4523554.60 -8211041.40,4523547.98 -8211043.90,4523542.83 -8211047.40,4523539.14 -8211051.90,4523536.94 -8211057.40,4523536.20 -8211057.40,4523539.20 -8211052.51,4523539.85 -8211048.51,4523541.81 -8211045.40,4523545.08 -8211043.18,4523549.64 -8211041.84,4523555.52"/>
    </edge>
    <edge id=":100_0" function="internal">
        <lane id=":100_0_0" index="0" disallow="pedestrian" speed="6.43" length="8.87" width="3.00" shape="-8212680.27,4524428.83 -8212680.61,4524426.42 -8212681.64,4524424.71 -8212683.36,4524423.67 -8212685.77,4524423.33"/>
    </edge>
    <edge id=":100_1" function="internal">
        <lane id=":100_1_0" index="0" disallow="pedestrian" speed="11.11" length="20.00" width="3.00" shape="-8212680.27,4524428.83 -8212680.27,4524408.83"/>
        <lane id=":100_1_1" index="1" disallow="pedestrian" speed="11.11" length="20.00" width="3.00" shape="-8212677.27,4524428.83 -8212677.27,4524408.83"/>
    </edge>
    <edge id=":100_3" function="internal">
        <lane id=":100_3_0" index="0" disallow="pedestrian" speed="9.06" length="18.55" width="3.00" shape="-8212677.27,4524428.83 -8212676.55,4524423.80 -8212674.39,4524420.21 -8212670.80,4524418.05 -8212665.77,4524417.33"/>
    </edge>
    <edge id=":100_4" function="internal">
        <lane id=":100_4_0" index="0" disallow="pedestrian" speed="6.43" length="4.58" width="3.00" shape="-8212665.77,4524423.33 -8212668.18,4524423.67 -8212669.89,4524424.71 -8212669.97,4524424.83"/>
    </edge>
    <edge id=":100_5" function="internal">
        <lane id=":100_5_0" index="0" disallow="pedestrian" speed="13.89" length="20.00" width="3.00" shape="-8212665.77,4524423.33 -8212685.77,4524423.33"/>
        <lane id=":100_5_1" index="1" disallow="pedestrian" speed="13.89" length="20.00" width="3.00" shape="-8212665.77,4524420.33 -8212685.77,4524420.33"/>
    </edge>
    <edge id=":100_7" function="internal">
        <lane id=":100_7_0" index="0" disallow="pedestrian" speed="9.06" length="4.31" width="3.00" shape="-8212665.77,4524420.33 -8212670.03,4524419.72"/>
    </edge>
    <edge id=":100_16" function="internal">
        <lane id=":100_16_0" index="0" disallow="pedestrian" speed="6.43" length="4.29" width="3.00" shape="-8212669.97,4524424.83 -8212670.93,4524426.42 -8212671.27,4524428.83"/>
    </edge>
    <edge id=":100_17" function="internal">
        <lane id=":100_17_0" index="0" disallow="pedestrian" speed="9.06" length="14.24" width="3.00" shape="-8212670.03,4524419.72 -8212670.80,4524419.61 -8212674.39,4524417.46 -8212676.55,4524413.86 -8212677.27,4524408.83"/>
    </edge>
    <edge id=":100_8" function="internal">
        <lane id=":100_8_0" index="0" disallow="pedestrian" speed="6.43" length="8.87" width="3.00" shape="-8212671.27,4524408.83 -8212670.93,4524411.24 -8212669.89,4524412.96 -8212668.18,4524413.99 -8212665.77,4524414.33"/>
    </edge>
    <edge id=":100_9" function="internal">
        <lane id=":100_9_0" index="0" disallow="pedestrian" speed="11.11" length="20.00" width="3.00" shape="-8212671.27,4524408.83 -8212671.27,4524428.83"/>
        <lane id=":100_9_1" index="1" disallow="pedestrian" speed="11.11" length="20.00" width="3.00" shape="-8212674.27,4524408.83 -8212674.27,4524428.83"/>
    </edge>
    <edge id=":100_11" function="internal">
        <lane id=":100_11_0" index="0" disallow="pedestrian" speed="9.06" length="18.55" width="3.00" shape="-8212674.27,4524408.83 -8212674.99,4524413.86 -8212677.14,4524417.46 -8212680.74,4524419.61 -8212685.77,4524420.33"/>
    </edge>
    <edge id=":100_12" function="internal">
        <lane id=":100_12_0" index="0" disallow="pedestrian" speed="6.43" length="4.58" width="3.00" shape="-8212685.77,4524414.33 -8212683.36,4524413.99 -8212681.64,4524412.96 -8212681.57,4524412.83"/>
    </edge>
    <edge id=":100_13" function="internal">
        <lane id=":100_13_0" index="0" disallow="pedestrian" speed="13.89" length="20.00" width="3.00" shape="-8212685.77,4524414.33 -8212665.77,4524414.33"/>
        <lane id=":100_13_1" index="1" disallow="pedestrian" speed="13.89" length="20.00" width="3.00" shape="-8212685.77,4524417.33 -8212665.77,4524417.33"/>
    </edge>
    <edge id=":100_15" function="internal">
        <lane id=":100_15_0" index="0" disallow="pedestrian" speed="9.06" length="4.31" width="3.00" shape="-8212685.77,4524417.33 -8212681.51,4524417.94"/>
    </edge>
    <edge id=":100_18" function="internal">
        <lane id=":100_18_0" index="0" disallow="pedestrian" speed="6.43" length="4.29" width="3.00" shape="-8212681.57,4524412.83 -8212680.61,4524411.24 -8212680.27,4524408.83"/>
    </edge>
    <edge id=":100_19" function="internal">
        <lane id=":100_19_0" index="0" disallow="pedestrian" speed="9.06" length="14.24" width="3.00" shape="-8212681.51,4524417.94 -8212680.74,4524418.05 -8212677.14,4524420.21 -8212674.99,4524423.80 -8212674.27,4524428.83"/>
    </edge>
    <edge id=":100_c0" function="crossing" crossingEdges="e192 e192_r">
        <lane id=":100_c0_0" index="0" allow="pedestrian" speed="2.78" length="12.00" width="4.00" shape="-8212669.77,4524426.83 -8212681.77,4524426.83" outlineShape="-8212669.67,4524428.83 -8212681.87,4524428.83 -8212685.77,4524424.83 -8212685.77,4524426.83 -8212683.77,4524428.83 -8212681.77,4524428.83 -8212685.77,4524424.83 -8212665.77,4524424.83 -8212666.99,4524424.94 -8212667.99,4524425.27 -8212668.77,4524425.83 -8212669.33,4524426.61 -8212669.66,4524427.61"/>
    </edge>
    <edge id=":100_c1" function="crossing" crossingEdges="e191 e191_r">
        <lane id=":100_c1_0" index="0" allow="pedestrian" speed="2.78" length="12.00" width="4.00" shape="-8212667.77,4524412.83 -8212667.77,4524424.83" outlineShape="-8212665.77,4524412.73 -8212665.77,4524424.93 -8212669.77,4524428.83 -8212667.77,4524428.83 -8212665.77,4524426.83 -8212665.77,4524424.83 -8212669.77,4524428.83 -8212669.77,4524408.83 -8212669.66,4524410.05 -8212669.33,4524411.05 -8212668.77,4524411.83 -8212667.99,4524412.39 -8212666.99,4524412.72"/>
    </edge>
    <edge id=":100_c2" function="crossing" crossingEdges="e171_r e171">
        <lane id=":100_c2_0" index="0" allow="pedestrian" speed="2.78" length="12.00" width="4.00" shape="-8212681.77,4524410.83 -8212669.77,4524410.83" outlineShape="-8212681.87,4524408.83 -8212669.67,4524408.83 -8212665.77,4524412.83 -8212665.77,4524410.83 -8212667.77,4524408.83 -8212669.77,4524408.83 -8212665.77,4524412.83 -8212685.77,4524412.83 -8212684.55,4524412.72 -8212683.55,4524412.39 -8212682.77,4524411.83 -8212682.21,4524411.05 -8212681.88,4524410.05"/>
    </edge>
    <edge id=":100_c3" function="crossing" crossingEdges="e189_r e189">
        <lane id=":100_c3_0" index="0" allow="pedestrian" speed="2.78" length="12.00" width="4.00" shape="-8212683.77,4524424.83 -8212683.77,4524412.83" outlineShape="-8212685.77,4524424.93 -8212685.77,4524412.73 -8212681.77,4524408.83 -8212683.77,4524408.83 -8212685.77,4524410.83 -8212685.77,4524412.83 -8212681.77,4524408.83 -8212681.77,4524428.83 -8212681.88,4524427.61 -8212682.21,4524426.61 -8212682.77,4524425.83 -8212683.55,4524425.27 -8212684.55,4524424.94"/>
    </edge>
    <edge id=":100_w0" function="walkingarea">
        <lane id=":100_w0_0" index="0" allow="pedestrian" speed="2.78" length="3.30" width="4.00" shape="-8212685.77,4524424.83 -8212685.77,4524426.83 -8212683.77,4524428.83 -8212681.77,4524428.83 -8212681.88,4524427.61 -8212682.21,4524426.61 -8212682.77,4524425.83 -8212683.55,4524425.27 -8212684.55,4524424.94"/>
    </edge>
    <edge id=":100_w1" function="walkingarea">
        <lane id=":100_w1_0" index="0" allow="pedestrian" speed="2.78" length="3.30" width="4.00" shape="-8212669.77,4524428.83 -8212667.77,4524428.83 -8212665.77,4524426.83 -8212665.77,4524424.83 -8212666.99,4524424.94 -8212667.99,4524425.27 -8212668.77,4524425.83 -8212669.33,4524426.61 -8212669.66,4524427.61"/>
    </edge>
    <edge id=":100_w2" function="walkingarea">
        <lane id=":100_w2_0" index="0" allow="pedestrian" speed="2.78" length="3.30" width="4.00" shape="-8212665.77,4524412.83 -8212665.77,4524410.83 -8212667.77,4524408.83 -8212669.77,4524408.83 -8212669.66,4524410.05 -8212669.33,4524411.05 -8212668.77,4524411.83 -8212667.99,4524412.39 -8212666.99,4524412.72"/>
    </edge>
    <edge id=":100_w3" function="walkingarea">
        <lane id=":100_w3_0" index="0" allow="pedestrian" speed="2.78" length="3.30" width="4.00" shape="-8212681.77,4524408.83 -8212683.77,4524408.83 -8212685.77,4524410.83 -8212685.77,4524412.83 -8212684.55,4524412.72 -8212683.55,4524412.39 -8212682.77,4524411.83 -8212682.21,4524411.05 -8212681.88,4524410.05"/>
    </edge>
    <edge id=":101_0" function="internal">
        <lane id=":101_0_0" index="0" disallow="pedestrian" speed="6.43" length="8.87" width="3.00" shape="-8212499.34,4524428.83 -8212499.68,4524426.42 -8212500.71,4524424.71 -8212502.43,4524423.67 -8212504.84,4524423.33"/>
    </edge>
    <edge id=":101_1" function="internal">
        <lane id=":101_1_0" index="0" disallow="pedestrian" speed="11.11" length="20.00" width="3.00" shape="-8212499.34,4524428.83 -8212499.34,4524408.83"/>
        <lane id=":101_1_1" index="1" disallow="pedestrian" speed="11.11" length="20.00" width="3.00" shape="-8212496.34,4524428.83 -8212496.34,4524408.83"/>
    </edge>
    <edge id=":101_3" function="internal">
        <lane id=":101_3_0" index="0" disallow="pedestrian" speed="9.06" length="18.55" width="3.00" shape="-8212496.34,4524428.83 -8212495.62,4524423.80 -8212493.46,4524420.21 -8212489.87,4524418.05 -8212484.84,4524417.33"/>
    </edge>
    <edge id=":101_4" function="internal">
        <lane id=":101_4_0" index="0" disallow="pedestrian" speed="6.43" length="4.58" width="3.00" shape="-8212484.84,4524423.33 -8212487.25,4524423.67 -8212488.96,4524424.71 -8212489.04,4524424.83"/>
    </edge>
    <edge id=":101_5" function="internal">
        <lane id=":101_5_0" index="0" disallow="pedestrian" speed="13.89" length="20.00" width="3.00" shape="-8212484.84,4524423.33 -8212504.84,4524423.33"/>
        <lane id=":101_5_1" index="1" disallow="pedestrian" speed="13.89" length="20.00" width="3.00" shape="-8212484.84,4524420.33 -8212504.84,4524420.33"/>
    </edge>
    <edge id=":101_7" function="internal">
        <lane id=":101_7_0" index="0" disallow="pedestrian" speed="9.06" length="4.31" width="3.00" shape="-8212484.84,4524420.33 -8212489.10,4524419.72"/>
    </edge>
    <edge id=":101_16" function="internal">
        <lane id=":101_16_0" index="0" disallow="pedestrian" speed="6.43" length="4.29" width="3.00" shape="-8212489.04,4524424.83 -8212490.00,4524426.42 -8212490.34,4524428.83"/>
    </edge>
    <edge id=":101_17" function="internal">
        <lane id=":101_17_0" index="0" disallow="pedestrian" speed="9.06" length="14.24" width="3.00" shape="-8212489.10,4524419.72 -8212489.87,4524419.61 -8212493.46,4524417.46 -8212495.62,4524413.86 -8212496.34,4524408.83"/>
    </edge>
    <edge id=":101_8" function="internal">
        <lane id=":101_8_0" index="0" disallow="pedestrian" speed="6.43" length="8.87" width="3.00" shape="-8212490.34,4524408.83 -8212490.00,4524411.24 -8212488.96,4524412.96 -8212487.25,4524413.99 -8212484.84,4524414.33"/>
    </edge>
    <edge id=":101_9" function="internal">
        <lane id=":101_9_0" index="0" disallow="pedestrian" speed="11.11" length="20.00" width="3.00" shape="-8212490.34,4524408.83 -8212490.34,4524428.83"/>
        <lane id=":101_9_1" index="1" disallow="pedestrian" speed="11.11" length="20.00" width="3.00" shape="-8212493.34,4524408.83 -8212493.34,4524428.83"/>
    </edge>
    <edge id=":101_11" function="internal">
        <lane id=":101_11_0" index="0" disallow="pedestrian" speed="9.06" length="18.55" width="3.00" shape="-8212493.34,4524408.83 -8212494.06,4524413.86 -8212496.21,4524417.46 -8212499.81,4524419.61 -8212504.84,4524420.33"/>
    </edge>
    <edge id=":101_12" function="internal">
        <lane id=":101_12_0" index="0" disallow="pedestrian" speed="6.43" length="4.58" width="3.00" shape="-8212504.84,4524414.33 -8212502.43,4524413.99 -8212500.71,4524412.96 -8212500.64,4524412.83"/>
    </edge>
    <edge id=":101_13" function="internal">
        <lane id=":101_13_0" index="0" disallow="pedestrian" speed="13.89" length="20.00" width="3.00" shape="-8212504.84,4524414.33 -8212484.84,4524414.33"/>
        <lane id=":101_13_1" index="1" disallow="pedestrian" speed="13.89" length="20.00" width="3.00" shape="-8212504.84,4524417.33 -8212484.84,4524417.33"/>
    </edge>
    <edge id=":101_15" function="internal">
        <lane id=":101_15_0" index="0" disallow="pedestrian" speed="9.06" length="4.31" width="3.00" shape="-8212504.84,4524417.33 -8212500.58,4524417.94"/>
    </edge>
    <edge id=":101_18" function="internal">
        <lane id=":101_18_0" index="0" disallow="pedestrian" speed="6.43" length="4.29" width="3.00" shape="-8212500.64,4524412.83 -8212499.68,4524411.24 -8212499.34,4524408.83"/>
    </edge>
    <edge id=":101_19" function="internal">
        <lane id=":101_19_0" index="0" disallow="pedestrian" speed="9.06" length="14.24" width="3.00" shape="-8212500.58,4524417.94 -8212499.81,4524418.05 -8212496.21,4524420.21 -8212494.06,4524423.80 -8212493.34,4524428.83"/>
    </edge>
    <edge id=":101_c0" function="crossing" crossingEdges="e194 e194_r">
        <lane id=":101_c0_0" index="0" allow="pedestrian" speed="2.78" length="12.00" width="4.00" shape="-8212488.84,4524426.83 -8212500.84,4524426.83" outlineShape="-8212488.74,4524428.83 -8212500.94,4524428.83 -8212504.84,4524424.83 -8212504.84,4524426.83 -8212502.84,4524428.83 -8212500.84,4524428.83 -8212504.84,4524424.83 -8212484.84,4524424.83 -8212486.06,4524424.94 -8212487.06,4524425.27 -8212487.84,4524425.83 -8212488.40,4524426.61 -8212488.73,4524427.61"/>
    </edge>
    <edge id=":101_c1" function="crossing" crossingEdges="e193 e193_r">
        <lane id=":101_c1_0" index="0" allow="pedestrian" speed="2.78" length="12.00" width="4.00" shape="-8212486.84,4524412.83 -8212486.84,4524424.83" outlineShape="-8212484.84,4524412.73 -8212484.84,4524424.93 -8212488.84,4524428.83 -8212486.84,4524428.83 -8212484.84,4524426.83 -8212484.84,4524424.83 -8212488.84,4524428.83 -8212488.84,4524408.83 -8212488.73,4524410.05 -8212488.40,4524411.05 -8212487.84,4524411.83 -8212487.06,4524412.39 -8212486.06,4524412.72"/>
    </edge>
    <edge id=":101_c2" function="crossing" crossingEdges="e173_r e173">
        <lane id=":101_c2_0" index="0" allow="pedestrian" speed="2.78" length="12.00" width="4.00" shape="-8212500.84,4524410.83 -8212488.84,4524410.83" outlineShape="-8212500.94,4524408.83 -8212488.74,4524408.83 -8212484.84,4524412.83 -8212484.84,4524410.83 -8212486.84,4524408.83 -8212488.84,4524408.83 -8212484.84,4524412.83 -8212504.84,4524412.83 -8212503.62,4524412.72 -8212502.62,4524412.39 -8212501.84,4524411.83 -8212501.28,4524411.05 -8212500.95,4524410.05"/>
    </edge>
    <edge id=":101_c3" function="crossing" crossingEdges="e191_r e191">
        <lane id=":101_c3_0" index="0" allow="pedestrian" speed="2.78" length="12.00" width="4.00" shape="-8212502.84,4524424.83 -8212502.84,4524412.83" outlineShape="-8212504.84,4524424.93 -8212504.84,4524412.73 -8212500.84,4524408.83 -8212502.84,4524408.83 -8212504.84,4524410.83 -8212504.84,4524412.83 -8212500.84,4524408.83 -8212500.84,4524428.83 -8212500.95,4524427.61 -8212501.28,4524426.61 -8212501.84,4524425.83 -8212502.62,4524425.27 -8212503.62,4524424.94"/>
    </edge>
    <edge id=":101_w0" function="walkingarea">
        <lane id=":101_w0_0" index="0" allow="pedestrian" speed="2.78" length="3.30" width="4.00" shape="-8212504.84,4524424.83 -8212504.84,4524426.83 -8212502.84,4524428.83 -8212500.84,4524428.83 -8212500.95,4524427.61 -8212501.28,4524426.61 -8212501.84,4524425.83 -8212502.62,4524425.27 -8212503.62,4524424.94"/>
    </edge>
    <edge id=":101_w1" function="walkingarea">
        <lane id=":101_w1_0" index="0" allow="pedestrian" speed="2.78" length="3.30" width="4.00" shape="-8212488.84,4524428.83 -8212486.84,4524428.83 -8212484.84,4524426.83 -8212484.84,4524424.83 -8212486.06,4524424.94 -8212487.06,4524425.27 -8212487.84,4524425.83 -8212488.40,4524426.61 -8212488.73,4524427.61"/>
    </edge>
    <edge id=":101_w2" function="walkingarea">
        <lane id=":101_w2_0" index="0" allow="pedestrian" speed="2.78" length="3.30" width="4.00" shape="-8212484.84,4524412.83 -8212484.84,4524410.83 -8212486.84,4524408.83 -8212488.84,4524408.83 -8212488.73,4524410.05 -8212488.40,4524411.05 -8212487.84,4524411.83 -8212487.06,4524412.39 -8212486.06,4524412.72"/>
    </edge>
    <edge id=":101_w3" function="walkingarea">
        <lane id=":101_w3_0" index="0" allow="pedestrian" speed="2.78" length="3.30" width="4.00" shape="-8212500.84,4524408.83 -8212502.84,4524408.83 -8212504.84,4524410.83 -8212504.84,4524412.83 -8212503.62,4524412.72 -8212502.62,4524412.39 -8212501.84,4524411.83 -8212501.28,4524411.05 -8212500.95,4524410.05"/>
    </edge>
    <edge id=":102_0" function="internal">
        <lane id=":102_0_0" index="0" disallow="pedestrian" speed="6.43" length="4.58" width="3.00" shape="-8212318.41,4524428.83 -8212318.75,4524426.42 -8212319.78,4524424.71 -8212319.91,4524424.63"/>
    </edge>
    <edge id=":102_1" function="internal">
        <lane id=":102_1_0" index="0" disallow="pedestrian" speed="11.11" length="20.00" width="3.00" shape="-8212318.41,4524428.83 -8212318.41,4524408.83"/>
        <lane id=":102_1_1" index="1" disallow="pedestrian" speed="11.11" length="20.00" width="3.00" shape="-8212315.41,4524428.83 -8212315.41,4524408.83"/>
    </edge>
    <edge id=":102_3" function="internal">
        <lane id=":102_3_0" index="0" disallow="pedestrian" speed="9.06" length="4.31" width="3.00" shape="-8212315.41,4524428.83 -8212314.80,4524424.57"/>
    </edge>
    <edge id=":102_16" function="internal">
        <lane id=":102_16_0" index="0" disallow="pedestrian" speed="6.43" length="4.29" width="3.00" shape="-8212319.91,4524424.63 -8212321.50,4524423.67 -8212323.91,4524423.33"/>
    </edge>