<?xml version="1.0" ?>
<nodes>
    <node id="0" x="-8212856.7" y="4523549.699999999" type="traffic_light"/>
    <node id="1" x="-8212675.77" y="4523549.699999999" type="priority"/>
    <node id="2" x="-8212494.84" y="4523549.699999999" type="priority"/>
    <node id="3" x="-8212313.909999999" y="4523549.699999999" type="traffic_light"/>
    <node id="4" x="-8212132.98" y="4523549.699999999" type="priority"/>
    <node id="5" x="-8211952.05" y="4523549.699999999" type="priority"/>
    <node id="6" x="-8211771.119999999" y="4523549.699999999" type="traffic_light"/>
    <node id="7" x="-8211590.19" y="4523549.699999999" type="priority"/>
    <node id="8" x="-8211409.26" y="4523549.699999999" type="priority"/>
    <node id="9" x="-8211228.33" y="4523549.699999999" type="traffic_light"/>
    <node id="10" x="-8211047.399999999" y="4523549.699999999" type="priority"/>
    <node id="11" x="-8212856.7" y="4523646.2700000005" type="priority"/>
    <node id="12" x="-8212675.77" y="4523646.2700000005" type="traffic_light"/>
    <node id="13" x="-8212494.84" y="4523646.2700000005" type="priority"/>
    <node id="14" x="-8212313.909999999" y="4523646.2700000005" type="priority"/>
    <node id="15" x="-8212132.98" y="4523646.2700000005" type="traffic_light"/>
    <node id="16" x="-8211952.05" y="4523646.2700000005" type="priority"/>
    <node id="17" x="-8211771.119999999" y="4523646.2700000005" type="priority"/>
    <node id="18" x="-8211590.19" y="4523646.2700000005" type="traffic_light"/>
    <node id="19" x="-8211409.26" y="4523646.2700000005" type="priority"/>
    <node id="20" x="-8211228.33" y="4523646.2700000005" type="priority"/>
    <node id="21" x="-8211047.399999999" y="4523646.2700000005" type="traffic_light"/>
    <node id="22" x="-8212856.7" y="4523742.84" type="priority"/>
    <node id="23" x="-8212675.77" y="4523742.84" type="priority"/>
    <node id="24" x="-8212494.84" y="4523742.84" type="traffic_light"/>
    <node id="25" x="-8212313.909999999" y="4523742.84" type="priority"/>
    <node id="26" x="-8212132.98" y="4523742.84" type="priority"/>
    <node id="27" x="-8211952.05" y="4523742.84" type="traffic_light"/>
    <node id="28" x="-8211771.119999999" y="4523742.84" type="priority"/>
    <node id="29" x="-8211590.19" y="4523742.84" type="priority"/>
    <node id="30" x="-8211409.26" y="4523742.84" type="traffic_light"/>
    <node id="31" x="-8211228.33" y="4523742.84" type="priority"/>
    <node id="32" x="-8211047.399999999" y="4523742.84" type="priority"/>
    <node id="33" x="-8212856.7" y="4523839.41" type="traffic_light"/>
    <node id="34" x="-8212675.77" y="4523839.41" type="priority"/>
    <node id="35" x="-8212494.84" y="4523839.41" type="priority"/>
    <node id="36" x="-8212313.909999999" y="4523839.41" type="traffic_light"/>
    <node id="37" x="-8212132.98" y="4523839.41" type="priority"/>
    <node id="38" x="-8211952.05" y="4523839.41" type="priority"/>
    <node id="39" x="-8211771.119999999" y="4523839.41" type="traffic_light"/>
    <node id="40" x="-8211590.19" y="4523839.41" type="priority"/>
    <node id="41" x="-8211409.26" y="4523839.41" type="priority"/>
    <node id="42" x="-8211228.33" y="4523839.41" type="traffic_light"/>
    <node id="43" x="-8211047.399999999" y="4523839.41" type="priority"/>
    <node id="44" x="-8212856.7" y="4523935.98" type="priority"/>
    <node id="45" x="-8212675.77" y="4523935.98" type="traffic_light"/>
    <node id="46" x="-8212494.84" y="4523935.98" type="priority"/>
    <node id="47" x="-8212313.909999999" y="4523935.98" type="priority"/>
    <node id="48" x="-8212132.98" y="4523935.98" type="traffic_light"/>
    <node id="49" x="-8211952.05" y="4523935.98" type="priority"/>
    <node id="50" x="-8211771.119999999" y="4523935.98" type="priority"/>
    <node id="51" x="-8211590.19" y="4523935.98" type="traffic_light"/>
    <node id="52" x="-8211409.26" y="4523935.98" type="priority"/>
    <node id="53" x="-8211228.33" y="4523935.98" type="priority"/>
    <node id="54" x="-8211047.399999999" y="4523935.98" type="traffic_light"/>
    <node id="55" x="-8212856.7" y="4524032.55" type="priority"/>
    <node id="56" x="-8212675.77" y="4524032.55" type="priority"/>
    <node id="57" x="-8212494.84" y="4524032.55" type="traffic_light"/>
    <node id="58" x="-8212313.909999999" y="4524032.55" type="priority"/>
    <node id="59" x="-8212132.98" y="4524032.55" type="priority"/>
    <node id="60" x="-8211952.05" y="4524032.55" type="traffic_light"/>
    <node id="61" x="-8211771.119999999" y="4524032.55" type="priority"/>
    <node id="62" x="-8211590.19" y="4524032.55" type="priority"/>
    <node id="63" x="-8211409.26" y="4524032.55" type="traffic_light"/>
    <node id="64" x="-8211228.33" y="4524032.55" type="priority"/>
    <node id="65" x="-8211047.399999999" y="4524032.55" type="priority"/>
    <node id="66" x="-8212856.7" y="4524129.12" type="traffic_light"/>
    <node id="67" x="-8212675.77" y="4524129.12" type="priority"/>
    <node id="68" x="-8212494.84" y="4524129.12" type="priority"/>
    <node id="69" x="-8212313.909999999" y="4524129.12" type="traffic_light"/>
    <node id="70" x="-8212132.98" y="4524129.12" type="priority"/>
    <node id="71" x="-8211952.05" y="4524129.12" type="priority"/>
    <node id="72" x="-8211771.119999999" y="4524129.12" type="traffic_light"/>
    <node id="73" x="-8211590.19" y="4524129.12" type="priority"/>
    <node id="74" x="-8211409.26" y="4524129.12" type="priority"/>
    <node id="75" x="-8211228.33" y="4524129.12" type="traffic_light"/>
    <node id="76" x="-8211047.399999999" y="4524129.12" type="priority"/>
    <node id="77" x="-8212856.7" y="4524225.6899999995" type="priority"/>
    <node id="78" x="-8212675.77" y="4524225.6899999995" type="traffic_light"/>
    <node id="79" x="-8212494.84" y="4524225.6899999995" type="priority"/>
    <node id="80" x="-8212313.909999999" y="4524225.6899999995" type="priority"/>
    <node id="81" x="-8212132.98" y="4524225.6899999995" type="traffic_light"/>
    <node id="82" x="-8211952.05" y="4524225.6899999995" type="priority"/>
    <node id="83" x="-8211771.119999999" y="4524225.6899999995" type="priority"/>
    <node id="84" x="-8211590.19" y="4524225.6899999995" type="traffic_light"/>
    <node id="85" x="-8211409.26" y="4524225.6899999995" type="priority"/>
    <node id="86" x="-8211228.33" y="4524225.6899999995" type="priority"/>
    <node id="87" x="-8211047.399999999" y="4524225.6899999995" type="traffic_light"/>
    <node id="88" x="-8212856.7" y="4524322.26" type="priority"/>
    <node id="89" x="-8212675.77" y="4524322.26" type="priority"/>
    <node id="90" x="-8212494.84" y="4524322.26" type="traffic_light"/>
    <node id="91" x="-8212313.909999999" y="4524322.26" type="priority"/>
    <node id="92" x="-8212132.98" y="4524322.26" type="priority"/>
    <node id="93" x="-8211952.05" y="4524322.26" type="traffic_light"/>
    <node id="94" x="-8211771.119999999" y="4524322.26" type="priority"/>
    <node id="95" x="-8211590.19" y="4524322.26" type="priority"/>
    <node id="96" x="-8211409.26" y="4524322.26" type="traffic_light"/>
    <node id="97" x="-8211228.33" y="4524322.26" type="priority"/>
    <node id="98" x="-8211047.399999999" y="4524322.26" type="priority"/>
    <node id="99" x="-8212856.7" y="4524418.83" type="traffic_light"/>
    <node id="100" x="-8212675.77" y="4524418.83" type="priority"/>
    <node id="101" x="-8212494.84" y="4524418.83" type="priority"/>
    <node id="102" x="-8212313.909999999" y="4524418.83" type="traffic_light"/>
    <node id="103" x="-8212132.98" y="4524418.83" type="priority"/>
    <node id="104" x="-8211952.05" y="4524418.83" type="priority"/>
    <node id="105" x="-8211771.119999999" y="4524418.83" type="traffic_light"/>
    <node id="106" x="-8211590.19" y="4524418.83" type="priority"/>
    <node id="107" x="-8211409.26" y="4524418.83" type="priority"/>
    <node id="108" x="-8211228.33" y="4524418.83" type="traffic_light"/>
    <node id="109" x="-8211047.399999999" y="4524418.83" type="priority"/>
    <node id="110" x="-8212856.7" y="4524515.4" type="priority"/>
    <node id="111" x="-8212675.77" y="4524515.4" type="traffic_light"/>
    <node id="112" x="-8212494.84" y="4524515.4" type="priority"/>
    <node id="113" x="-8212313.909999999" y="4524515.4" type="priority"/>
    <node id="114" x="-8212132.98" y="4524515.4" type="traffic_light"/>
    <node id="115" x="-8211952.05" y="4524515.4" type="priority"/>
    <node id="116" x="-8211771.119999999" y="4524515.4" type="priority"/>
    <node id="117" x="-8211590.19" y="4524515.4" type="traffic_light"/>
    <node id="118" x="-8211409.26" y="4524515.4" type="priority"/>
    <node id="119" x="-8211228.33" y="4524515.4" type="priority"/>
    <node id="120" x="-8211047.399999999" y="4524515.4" type="traffic_light"/>
</nodes>