<?xml version="1.0" ?>
<routes>
    <route id="route_0" edges="e173 e193 e195 e197"/>
    <route id="route_1" edges="e100 e103 e123 e125"/>
    <route id="route_2" edges="e72 e93 e113"/>
    <route id="route_3" edges="e39 e41"/>
    <route id="route_4" edges="e11 e32 e53"/>
    <route id="route_5" edges="e134 e136 e138 e140"/>
    <route id="route_6" edges="e121 e124"/>
    <route id="route_7" edges="e216 e217 e218"/>
    <route id="route_8" edges="e51 e71 e73"/>
    <route id="route_9" edges="e169 e190 e210"/>
    <route id="route_10" edges="e117 e119 e121"/>
    <route id="route_11" edges="e81 e83 e104 e125"/>
    <route id="route_12" edges="e59 e80 e100 e103"/>
    <route id="route_13" edges="e0 e2 e5"/>
    <route id="route_14" edges="e2 e5 e26"/>
    <route id="route_15" edges="e163 e166"/>
    <route id="route_16" edges="e22 e42 e44 e47"/>
    <route id="route_17" edges="e27 e30 e50 e53"/>
    <route id="route_18" edges="e204 e217 e218"/>
    <route id="route_19" edges="e3 e24 e45 e65 e68"/>
    <route id="route_20" edges="e157 e160 e181 e201 e203"/>
    <route id="route_21" edges="e40 e60 e62 e83 e104"/>
    <route id="route_22" edges="e123 e125 e146 e167 e188"/>
    <route id="route_23" edges="e207 e209"/>
    <route id="route_24" edges="e115 e118 e139 e160 e181 e201"/>
    <route id="route_25" edges="e121 e124 e144 e146 e167 e188 e209"/>
    <route id="route_26" edges="e211 e212 e213 e214 e215 e216 e217 e218"/>
    <route id="route_27" edges="e41 e62 e83 e104 e125 e146 e167 e188"/>
    <route id="route_28" edges="e18 e20 e41 e62 e83 e104"/>
    <route id="route_29" edges="e185 e206 e218 e219"/>
    <route id="route_30" edges="e119 e121 e124 e145 e166 e186 e188 e209"/>
    <route id="route_31" edges="e80 e100 e102 e104 e125 e146 e167"/>
    <route id="route_32" edges="e59 e80 e100 e102 e104 e125 e146 e167"/>
    <route id="route_33" edges="e81 e83 e104 e125 e146"/>
    <route id="route_34" edges="e67 e70 e90 e92 e95 e116"/>
    <route id="route_35" edges="e12 e15 e35 e38 e58"/>
    <route id="route_36" edges="e216 e217 e218 e219"/>
    <route id="route_37" edges="e55 e75 e78 e98 e101"/>
    <route id="route_38" edges="e134 e137 e158 e178 e180 e182"/>
    <route id="route_39" edges="e218 e219"/>
    <route id="route_40" edges="e93 e114 e135 e155 e157"/>
    <route id="route_41" edges="e98 e101 e122 e142 e144 e146 e167"/>
    <route id="route_42" edges="e202 e216 e217 e218 e219"/>
    <route id="route_43" edges="e20 e41 e62 e83 e104 e125"/>
    <route id="route_44" edges="e111 e113 e116 e137 e158 e179 e199"/>
    <route id="route_45" edges="e107 e109 e112 e133 e153 e155 e157 e160"/>
    <route id="route_46" edges="e140 e143 e164 e185 e205 e208 e219"/>
    <route id="route_47" edges="e109 e112 e132 e135 e155 e157 e159 e161"/>
    <route id="route_48" edges="e153 e155 e158 e179 e199 e201 e203 e205 e207 e209"/>
    <route id="route_49" edges="e16 e18 e20 e41 e62 e83 e104 e125 e146 e167 e188 e209"/>
    <route id="route_50" edges="e50 e52 e54 e56 e59 e79 e82 e103 e123 e125 e146 e167 e188"/>
    <route id="route_51" edges="e163 e166 e186 e188 e209"/>
    <route id="route_52" edges="e190 e210 e211 e212 e213 e214 e215 e216 e217 e218 e219"/>
    <route id="route_53" edges="e52 e55 e75 e78 e98 e101 e121 e123 e125 e146 e167 e188 e209"/>
    <route id="route_54" edges="e210 e211 e212 e213 e214 e215 e216 e217 e218 e219"/>
    <route id="route_55" edges="e167 e188 e209"/>
    <route id="route_56" edges="e104 e125 e146 e167 e188 e209"/>
    <route id="route_57" edges="e204 e217 e218 e219"/>
    <route id="route_58" edges="e25 e27 e30 e50 e52 e55 e76 e97 e117 e120 e141 e162"/>
    <route id="route_59" edges="e131 e152 e173 e193 e195 e197 e200 e215 e216 e217 e218 e219"/>
    <route id="route_60" edges="e170 e173 e193 e195 e198 e214 e215 e216 e217"/>
    <route id="route_61" edges="e212 e213 e214 e215 e216 e217 e218 e219"/>
    <route id="route_62" edges="e180 e182 e185 e205 e207 e209"/>
    <route id="route_63" edges="e106 e127 e147 e149 e152 e172 e174 e177 e198 e214 e215 e216 e217 e218"/>
    <route id="route_64" edges="e158 e178 e180 e183 e203 e206 e218 e219"/>
    <route id="route_65" edges="e200 e215 e216 e217 e218 e219"/>
    <route id="route_66" edges="e19 e40 e61 e82 e103 e123 e125 e146 e167 e188 e209"/>
    <route id="route_67" edges="e183 e203 e205 e207 e209"/>
    <vehicle id="veh_0" type="car" route="route_15" depart="3300"/>
    <vehicle id="veh_1" type="car" route="route_53" depart="3300"/>
    <vehicle id="veh_2" type="car" route="route_14" depart="3300"/>
    <vehicle id="veh_3" type="car" route="route_61" depart="3300"/>
    <vehicle id="veh_4" type="car" route="route_20" depart="3300"/>
    <vehicle id="veh_5" type="car" route="route_52" depart="3300"/>
    <vehicle id="veh_6" type="ev" route="route_20" depart="3300">
        <param key="has.battery.device" value="true"/>
        <param key="maximumBatteryCapacity" value="40000"/>
        <param key="actualBatteryCapacity" value="15069"/>
    </vehicle>
    <vehicle id="veh_7" type="ev" route="route_18" depart="3300">
        <param key="has.battery.device" value="true"/>
        <param key="maximumBatteryCapacity" value="100000"/>
        <param key="actualBatteryCapacity" value="32351"/>
    </vehicle>
    <vehicle id="veh_8" type="ev" route="route_66" depart="3300">
        <param key="has.battery.device" value="true"/>
        <param key="maximumBatteryCapacity" value="60000"/>
        <param key="actualBatteryCapacity" value="51208"/>
    </vehicle>
    <vehicle id="veh_9" type="car" route="route_2" depart="3300"/>
    <vehicle id="veh_10" type="car" route="route_36" depart="3300"/>
    <vehicle id="veh_11" type="car" route="route_27" depart="3300"/>
    <vehicle id="veh_12" type="car" route="route_60" depart="3300"/>
    <vehicle id="veh_13" type="car" route="route_21" depart="3300"/>
    <vehicle id="veh_14" type="taxi" route="route_52" depart="3300"/>
    <vehicle id="veh_15" type="car" route="route_23" depart="3300"/>
    <vehicle id="veh_16" type="car" route="route_65" depart="3300"/>
    <vehicle id="veh_17" type="taxi" route="route_43" depart="3300"/>
    <vehicle id="veh_18" type="car" route="route_8" depart="3300"/>
    <vehicle id="veh_19" type="taxi" route="route_49" depart="3300"/>
    <vehicle id="veh_20" type="ev" route="route_64" depart="3300">
        <param key="has.battery.device" value="true"/>
        <param key="maximumBatteryCapacity" value="40000"/>
        <param key="actualBatteryCapacity" value="16856"/>
    </vehicle>
    <vehicle id="veh_21" type="car" route="route_19" depart="3300"/>
    <vehicle id="veh_22" type="car" route="route_22" depart="3300"/>
    <vehicle id="veh_23" type="car" route="route_4" depart="3300"/>
    <vehicle id="veh_24" type="car" route="route_64" depart="3300"/>
    <vehicle id="veh_25" type="car" route="route_11" depart="3300"/>
    <vehicle id="veh_26" type="car" route="route_16" depart="3300"/>
    <vehicle id="veh_27" type="car" route="route_0" depart="3300"/>
    <vehicle id="veh_28" type="car" route="route_55" depart="3300"/>
    <vehicle id="veh_29" type="car" route="route_47" depart="3300"/>
    <vehicle id="veh_30" type="car" route="route_67" depart="3300"/>
    <vehicle id="veh_31" type="car" route="route_61" depart="3300"/>
    <vehicle id="veh_32" type="car" route="route_48" depart="3300"/>
    <vehicle id="veh_33" type="car" route="route_12" depart="3300"/>
    <vehicle id="veh_34" type="car" route="route_32" depart="3300"/>
    <vehicle id="veh_35" type="car" route="route_29" depart="3300"/>
    <vehicle id="veh_36" type="car" route="route_10" depart="3300"/>
    <vehicle id="veh_37" type="taxi" route="route_52" depart="3300"/>
    <vehicle id="veh_38" type="taxi" route="route_0" depart="3300"/>
    <vehicle id="veh_39" type="car" route="route_0" depart="3300"/>
    <vehicle id="veh_40" type="car" route="route_15" depart="3300"/>
    <vehicle id="veh_41" type="car" route="route_48" depart="3300"/>
    <vehicle id="veh_42" type="car" route="route_40" depart="3300"/>
    <vehicle id="veh_43" type="car" route="route_13" depart="3300"/>
    <vehicle id="veh_44" type="bus" route="route_32" depart="3300"/>
    <vehicle id="veh_45" type="taxi" route="route_54" depart="3300"/>
    <vehicle id="veh_46" type="car" route="route_35" depart="3300"/>
    <vehicle id="veh_47" type="car" route="route_50" depart="3300"/>
    <vehicle id="veh_48" type="car" route="route_52" depart="3300"/>
    <vehicle id="veh_49" type="car" route="route_61" depart="3300"/>
    <vehicle id="veh_50" type="bus" route="route_61" depart="3300"/>
    <vehicle id="veh_51" type="taxi" route="route_39" depart="3300"/>
    <vehicle id="veh_52" type="car" route="route_50" depart="3300"/>
    <vehicle id="veh_53" type="car" route="route_15" depart="3300"/>
    <vehicle id="veh_54" type="car" route="route_57" depart="3300"/>
    <vehicle id="veh_55" type="car" route="route_20" depart="3300"/>
    <vehicle id="veh_56" type="ev" route="route_43" depart="3300">
        <param key="has.battery.device" value="true"/>
        <param key="maximumBatteryCapacity" value="100000"/>
        <param key="actualBatteryCapacity" value="54033"/>
    </vehicle>
    <vehicle id="veh_57" type="car" route="route_6" depart="3300"/>
    <vehicle id="veh_58" type="bus" route="route_0" depart="3300"/>
    <vehicle id="veh_59" type="car" route="route_18" depart="3300"/>
    <vehicle id="veh_60" type="car" route="route_55" depart="3300"/>
    <vehicle id="veh_61" type="ev" route="route_10" depart="3300">
        <param key="has.battery.device" value="true"/>
        <param key="maximumBatteryCapacity" value="60000"/>
        <param key="actualBatteryCapacity" value="25983"/>
    </vehicle>
    <vehicle id="veh_62" type="car" route="route_49" depart="3300"/>
    <vehicle id="veh_63" type="car" route="route_51" depart="3300"/>
    <vehicle id="veh_64" type="car" route="route_66" depart="3300"/>
    <vehicle id="veh_65" type="taxi" route="route_7" depart="3300"/>
    <vehicle id="veh_66" type="car" route="route_22" depart="3300"/>
    <vehicle id="veh_67" type="car" route="route_56" depart="3300"/>
    <vehicle id="veh_68" type="ev" route="route_66" depart="3300">
        <param key="has.battery.device" value="true"/>
        <param key="maximumBatteryCapacity" value="100000"/>
        <param key="actualBatteryCapacity" value="85845"/>
    </vehicle>
    <vehicle id="veh_69" type="taxi" route="route_4" depart="3300"/>
    <vehicle id="veh_70" type="car" route="route_65" depart="3300"/>
    <vehicle id="veh_71" type="car" route="route_29" depart="3300"/>
    <vehicle id="veh_72" type="car" route="route_4" depart="3300"/>
    <vehicle id="veh_73" type="car" route="route_0" depart="3300"/>
    <vehicle id="veh_74" type="car" route="route_11" depart="3300"/>
    <vehicle id="veh_75" type="car" route="route_51" depart="3300"/>
    <vehicle id="veh_76" type="car" route="route_50" depart="3300"/>
    <vehicle id="veh_77" type="car" route="route_25" depart="3300"/>
    <vehicle id="veh_78" type="car" route="route_8" depart="3300"/>
    <vehicle id="veh_79" type="car" route="route_36" depart="3300"/>
    <vehicle id="veh_80" type="car" route="route_44" depart="3300"/>
    <vehicle id="veh_81" type="car" route="route_35" depart="3300"/>
    <vehicle id="veh_82" type="taxi" route="route_24" depart="3300"/>
    <vehicle id="veh_83" type="car" route="route_51" depart="3300"/>
    <vehicle id="veh_84" type="car" route="route_33" depart="3300"/>
    <vehicle id="veh_85" type="bus" route="route_64" depart="3300"/>
    <vehicle id="veh_86" type="ev" route="route_43" depart="3300">
        <param key="has.battery.device" value="true"/>
        <param key="maximumBatteryCapacity" value="40000"/>
        <param key="actualBatteryCapacity" value="24076"/>
    </vehicle>
    <vehicle id="veh_87" type="car" route="route_65" depart="3300"/>
    <vehicle id="veh_88" type="car" route="route_32" depart="3300"/>
    <vehicle id="veh_89" type="car" route="route_48" depart="3300"/>
    <vehicle id="veh_90" type="car" route="route_31" depart="3300"/>
    <vehicle id="veh_91" type="car" route="route_58" depart="3300"/>
    <vehicle id="veh_92" type="car" route="route_3" depart="3300"/>
    <vehicle id="veh_93" type="car" route="route_33" depart="3300"/>
    <vehicle id="veh_94" type="ev" route="route_28" depart="3300">
        <param key="has.battery.device" value="true"/>
        <param key="maximumBatteryCapacity" value="100000"/>
        <param key="actualBatteryCapacity" value="77319"/>
    </vehicle>
    <vehicle id="veh_95" type="car" route="route_29" depart="3300"/>
    <vehicle id="veh_96" type="car" route="route_52" depart="3300"/>
    <vehicle id="veh_97" type="car" route="route_66" depart="3300"/>
    <vehicle id="veh_98" type="car" route="route_33" depart="3300"/>
    <vehicle id="veh_99" type="taxi" route="route_11" depart="3300"/>
    <vehicle id="veh_100" type="car" route="route_43" depart="3300"/>
    <vehicle id="veh_101" type="ev" route="route_45" depart="3300">
        <param key="has.battery.device" value="true"/>
        <param key="maximumBatteryCapacity" value="40000"/>
        <param key="actualBatteryCapacity" value="23437"/>
    </vehicle>
    <vehicle id="veh_102" type="taxi" route="route_34" depart="3300"/>
    <vehicle id="veh_103" type="bus" route="route_24" depart="3300"/>
    <vehicle id="veh_104" type="car" route="route_25" depart="3300"/>
    <vehicle id="veh_105" type="taxi" route="route_30" depart="3300"/>
    <vehicle id="veh_106" type="car" route="route_26" depart="3300"/>
    <vehicle id="veh_107" type="taxi" route="route_31" depart="3300"/>
    <vehicle id="veh_108" type="car" route="route_45" depart="3300"/>
    <vehicle id="veh_109" type="bus" route="route_13" depart="3300"/>
    <vehicle id="veh_110" type="ev" route="route_63" depart="3300">
        <param key="has.battery.device" value="true"/>
        <param key="maximumBatteryCapacity" value="40000"/>
        <param key="actualBatteryCapacity" value="28219"/>
    </vehicle>
    <vehicle id="veh_111" type="car" route="route_5" depart="3300"/>
    <vehicle id="veh_112" type="car" route="route_47" depart="3300"/>
    <vehicle id="veh_113" type="car" route="route_63" depart="3300"/>
    <vehicle id="veh_114" type="car" route="route_35" depart="3300"/>
    <vehicle id="veh_115" type="car" route="route_65" depart="3300"/>
    <vehicle id="veh_116" type="taxi" route="route_28" depart="3300"/>
    <vehicle id="veh_117" type="car" route="route_16" depart="3300"/>
    <vehicle id="veh_118" type="ev" route="route_4" depart="3300">
        <param key="has.battery.device" value="true"/>
        <param key="maximumBatteryCapacity" value="60000"/>
        <param key="actualBatteryCapacity" value="35219"/>
    </vehicle>
    <vehicle id="veh_119" type="car" route="route_50" depart="3300"/>
    <vehicle id="veh_120" type="car" route="route_22" depart="3300"/>
    <vehicle id="veh_121" type="car" route="route_15" depart="3300"/>
    <vehicle id="veh_122" type="car" route="route_58" depart="3300"/>
    <vehicle id="veh_123" type="car" route="route_1" depart="3300"/>
    <vehicle id="veh_124" type="ev" route="route_12" depart="3300">
        <param key="has.battery.device" value="true"/>
        <param key="maximumBatteryCapacity" value="40000"/>
        <param key="actualBatteryCapacity" value="21106"/>
    </vehicle>
    <vehicle id="veh_125" type="car" route="route_33" depart="3300"/>
    <vehicle id="veh_126" type="bus" route="route_33" depart="3300"/>
    <vehicle id="veh_127" type="taxi" route="route_60" depart="3300"/>
    <vehicle id="veh_128" type="car" route="route_43" depart="3300"/>
    <vehicle id="veh_129" type="car" route="route_63" depart="3300"/>
    <vehicle id="veh_130" type="car" route="route_53" depart="3300"/>
    <vehicle id="veh_131" type="car" route="route_47" depart="3300"/>
    <vehicle id="veh_132" type="car" route="route_51" depart="3300"/>
    <vehicle id="veh_133" type="taxi" route="route_23" depart="3300"/>
    <vehicle id="veh_134" type="car" route="route_29" depart="3300"/>
    <vehicle id="veh_135" type="car" route="route_34" depart="3300"/>
    <vehicle id="veh_136" type="car" route="route_55" depart="3300"/>
    <vehicle id="veh_137" type="car" route="route_25" depart="3300"/>
    <vehicle id="veh_138" type="ev" route="route_1" depart="3300">
        <param key="has.battery.device" value="true"/>
        <param key="maximumBatteryCapacity" value="100000"/>
        <param key="actualBatteryCapacity" value="38972"/>
    </vehicle>
    <vehicle id="veh_139" type="bus" route="route_63" depart="3300"/>
    <vehicle id="veh_140" type="ev" route="route_40" depart="3300">
        <param key="has.battery.device" value="true"/>
        <param key="maximumBatteryCapacity" value="100000"/>
        <param key="actualBatteryCapacity" value="61020"/>
    </vehicle>
    <vehicle id="veh_141" type="car" route="route_38" depart="3300"/>
    <vehicle id="veh_142" type="taxi" route="route_6" depart="3300"/>
    <vehicle id="veh_143" type="car" route="route_20" depart="3300"/>
    <vehicle id="veh_144" type="ev" route="route_12" depart="3300">
        <param key="has.battery.device" value="true"/>
        <param key="maximumBatteryCapacity" value="60000"/>
        <param key="actualBatteryCapacity" value="35155"/>
    </vehicle>
    <vehicle id="veh_145" type="car" route="route_42" depart="3300"/>
    <vehicle id="veh_146" type="taxi" route="route_46" depart="3300"/>
    <vehicle id="veh_147" type="car" route="route_32" depart="3300"/>
    <vehicle id="veh_148" type="car" route="route_52" depart="3300"/>
    <vehicle id="veh_149" type="ev" route="route_25" depart="3300">
        <param key="has.battery.device" value="true"/>
        <param key="maximumBatteryCapacity" value="100000"/>
        <param key="actualBatteryCapacity" value="87786"/>
    </vehicle>
    <vehicle id="veh_150" type="car" route="route_22" depart="3300"/>
    <vehicle id="veh_151" type="car" route="route_36" depart="3300"/>
    <vehicle id="veh_152" type="car" route="route_65" depart="3300"/>
    <vehicle id="veh_153" type="car" route="route_57" depart="3300"/>
    <vehicle id="veh_154" type="car" route="route_48" depart="3300"/>
    <vehicle id="veh_155" type="car" route="route_59" depart="3300"/>
    <vehicle id="veh_156" type="car" route="route_18" depart="3300"/>
    <vehicle id="veh_157" type="car" route="route_43" depart="3300"/>
    <vehicle id="veh_158" type="car" route="route_51" depart="3300"/>
    <vehicle id="veh_159" type="car" route="route_9" depart="3300"/>
    <vehicle id="veh_160" type="ev" route="route_40" depart="3300">
        <param key="has.battery.device" value="true"/>
        <param key="maximumBatteryCapacity" value="60000"/>
        <param key="actualBatteryCapacity" value="26215"/>
    </vehicle>
    <vehicle id="veh_161" type="car" route="route_34" depart="3300"/>
    <vehicle id="veh_162" type="car" route="route_50" depart="3300"/>
    <vehicle id="veh_163" type="taxi" route="route_56" depart="3300"/>
    <vehicle id="veh_164" type="car" route="route_46" depart="3300"/>
    <vehicle id="veh_165" type="car" route="route_66" depart="3300"/>
    <vehicle id="veh_166" type="car" route="route_52" depart="3300"/>
    <vehicle id="veh_167" type="bus" route="route_2" depart="3300"/>
    <vehicle id="veh_168" type="ev" route="route_10" depart="3300">
        <param key="has.battery.device" value="true"/>
        <param key="maximumBatteryCapacity" value="40000"/>
        <param key="actualBatteryCapacity" value="27888"/>
    </vehicle>
    <vehicle id="veh_169" type="taxi" route="route_50" depart="3300"/>
    <vehicle id="veh_170" type="ev" route="route_60" depart="3300">
        <param key="has.battery.device" value="true"/>
        <param key="maximumBatteryCapacity" value="40000"/>
        <param key="actualBatteryCapacity" value="34483"/>
    </vehicle>
    <vehicle id="veh_171" type="car" route="route_3" depart="3300"/>
    <vehicle id="veh_172" type="car" route="route_67" depart="3300"/>
    <vehicle id="veh_173" type="car" route="route_10" depart="3300"/>
    <vehicle id="veh_174" type="ev" route="route_49" depart="3300">
        <param key="has.battery.device" value="true"/>
        <param key="maximumBatteryCapacity" value="100000"/>
        <param key="actualBatteryCapacity" value="39316"/>
    </vehicle>
    <vehicle id="veh_175" type="car" route="route_31" depart="3300"/>
    <vehicle id="veh_176" type="car" route="route_56" depart="3300"/>
    <vehicle id="veh_177" type="car" route="route_16" depart="3300"/>
    <vehicle id="veh_178" type="car" route="route_21" depart="3300"/>
    <vehicle id="veh_179" type="ev" route="route_41" depart="3300">
        <param key="has.battery.device" value="true"/>
        <param key="maximumBatteryCapacity" value="100000"/>
        <param key="actualBatteryCapacity" value="51410"/>
    </vehicle>
    <vehicle id="veh_180" type="car" route="route_59" depart="3300"/>
    <vehicle id="veh_181" type="car" route="route_34" depart="3300"/>
    <vehicle id="veh_182" type="car" route="route_17" depart="3300"/>
    <vehicle id="veh_183" type="car" route="route_22" depart="3300"/>
    <vehicle id="veh_184" type="car" route="route_58" depart="3300"/>
    <vehicle id="veh_185" type="car" route="route_55" depart="3300"/>
    <vehicle id="veh_186" type="car" route="route_39" depart="3300"/>
    <vehicle id="veh_187" type="car" route="route_61" depart="3300"/>
    <vehicle id="veh_188" type="car" route="route_11" depart="3300"/>
    <vehicle id="veh_189" type="car" route="route_46" depart="3300"/>
    <vehicle id="veh_190" type="car" route="route_19" depart="3300"/>
    <vehicle id="veh_191" type="car" route="route_0" depart="3300"/>
    <vehicle id="veh_192" type="car" route="route_17" depart="3300"/>
    <vehicle id="veh_193" type="car" route="route_60" depart="3300"/>
    <vehicle id="veh_194" type="car" route="route_62" depart="3300"/>
    <vehicle id="veh_195" type="car" route="route_61" depart="3300"/>
    <vehicle id="veh_196" type="taxi" route="route_55" depart="3300"/>
    <vehicle id="veh_197" type="car" route="route_29" depart="3300"/>
    <vehicle id="veh_198" type="car" route="route_47" depart="3300"/>
    <vehicle id="veh_199" type="bus" route="route_55" depart="3300"/>
    <vehicle id="veh_200" type="car" route="route_20" depart="3300"/>
    <vehicle id="veh_201" type="car" route="route_49" depart="3300"/>
    <vehicle id="veh_202" type="car" route="route_28" depart="3300"/>
    <vehicle id="veh_203" type="taxi" route="route_54" depart="3300"/>
    <vehicle id="veh_204" type="car" route="route_66" depart="3300"/>
    <vehicle id="veh_205" type="car" route="route_34" depart="3300"/>
    <vehicle id="veh_206" type="taxi" route="route_34" depart="3300"/>
    <vehicle id="veh_207" type="car" route="route_8" depart="3300"/>
    <vehicle id="veh_208" type="bus" route="route_37" depart="3300"/>
    <vehicle id="veh_209" type="ev" route="route_34" depart="3300">
        <param key="has.battery.device" value="true"/>
        <param key="maximumBatteryCapacity" value="60000"/>
        <param key="actualBatteryCapacity" value="40238"/>
    </vehicle>
    <vehicle id="veh_210" type="car" route="route_62" depart="3300"/>
    <vehicle id="veh_211" type="bus" route="route_2" depart="3300"/>
    <vehicle id="veh_212" type="bus" route="route_2" depart="3300"/>
    <vehicle id="veh_213" type="bus" route="route_13" depart="3300"/>
    <vehicle id="veh_214" type="taxi" route="route_16" depart="3300"/>
    <vehicle id="veh_215" type="car" route="route_1" depart="3300"/>
    <vehicle id="veh_216" type="taxi" route="route_19" depart="3300"/>
    <vehicle id="veh_217" type="ev" route="route_39" depart="3300">
        <param key="has.battery.device" value="true"/>
        <param key="maximumBatteryCapacity" value="40000"/>
        <param key="actualBatteryCapacity" value="20205"/>
    </vehicle>
    <vehicle id="veh_218" type="car" route="route_63" depart="3300"/>
    <vehicle id="veh_219" type="car" route="route_59" depart="3300"/>
    <vehicle id="veh_220" type="car" route="route_4" depart="3300"/>
    <vehicle id="veh_221" type="car" route="route_18" depart="3300"/>
    <vehicle id="veh_222" type="ev" route="route_60" depart="3300">
        <param key="has.battery.device" value="true"/>
        <param key="maximumBatteryCapacity" value="60000"/>
        <param key="actualBatteryCapacity" value="20569"/>
    </vehicle>
    <vehicle id="veh_223" type="bus" route="route_32" depart="3300"/>
    <vehicle id="veh_224" type="car" route="route_1" depart="3300"/>
    <vehicle id="veh_225" type="ev" route="route_56" depart="3300">
        <param key="has.battery.device" value="true"/>
        <param key="maximumBatteryCapacity" value="100000"/>
        <param key="actualBatteryCapacity" value="44937"/>
    </vehicle>
    <vehicle id="veh_226" type="taxi" route="route_4" depart="3300"/>
    <vehicle id="veh_227" type="bus" route="route_12" depart="3300"/>
    <vehicle id="veh_228" type="car" route="route_26" depart="3300"/>
    <vehicle id="veh_229" type="car" route="route_39" depart="3300"/>
    <vehicle id="veh_230" type="car" route="route_20" depart="3300"/>
    <vehicle id="veh_231" type="car" route="route_5" depart="3300"/>
    <vehicle id="veh_232" type="car" route="route_66" depart="3300"/>
    <vehicle id="veh_233" type="ev" route="route_25" depart="3300">
        <param key="has.battery.device" value="true"/>
        <param key="maximumBatteryCapacity" value="60000"/>
        <param key="actualBatteryCapacity" value="40986"/>
    </vehicle>
    <vehicle id="veh_234" type="car" route="route_6" depart="3300"/>
    <vehicle id="veh_235" type="car" route="route_27" depart="3300"/>
    <vehicle id="veh_236" type="car" route="route_30" depart="3300"/>
    <vehicle id="veh_237" type="car" route="route_41" depart="3300"/>
    <vehicle id="veh_238" type="ev" route="route_50" depart="3300">
        <param key="has.battery.device" value="true"/>
        <param key="maximumBatteryCapacity" value="60000"/>
        <param key="actualBatteryCapacity" value="39049"/>
    </vehicle>
    <vehicle id="veh_239" type="car" route="route_1" depart="3300"/>
    <vehicle id="veh_240" type="car" route="route_60" depart="3300"/>
    <vehicle id="veh_241" type="car" route="route_19" depart="3300"/>
    <vehicle id="veh_242" type="car" route="route_11" depart="3300"/>
    <vehicle id="veh_243" type="taxi" route="route_63" depart="3300"/>
    <vehicle id="veh_244" type="ev" route="route_7" depart="3300">
        <param key="has.battery.device" value="true"/>
        <param key="maximumBatteryCapacity" value="100000"/>
        <param key="actualBatteryCapacity" value="50305"/>
    </vehicle>
    <vehicle id="veh_245" type="ev" route="route_13" depart="3300">
        <param key="has.battery.device" value="true"/>
        <param key="maximumBatteryCapacity" value="100000"/>
        <param key="actualBatteryCapacity" value="39235"/>
    </vehicle>
    <vehicle id="veh_246" type="ev" route="route_44" depart="3300">
        <param key="has.battery.device" value="true"/>
        <param key="maximumBatteryCapacity" value="40000"/>
        <param key="actualBatteryCapacity" value="19601"/>
    </vehicle>
    <vehicle id="veh_247" type="car" route="route_56" depart="3300"/>
    <vehicle id="veh_248" type="car" route="route_2" depart="3300"/>
    <vehicle id="veh_249" type="car" route="route_45" depart="3300"/>
    <vehicle id="veh_250" type="car" route="route_32" depart="3300"/>
    <vehicle id="veh_251" type="car" route="route_62" depart="3300"/>
    <vehicle id="veh_252" type="car" route="route_37" depart="3300"/>
    <vehicle id="veh_253" type="car" route="route_62" depart="3300"/>
    <vehicle id="veh_254" type="bus" route="route_23" depart="3300"/>
    <vehicle id="veh_255" type="car" route="route_41" depart="3300"/>
    <vehicle id="veh_256" type="car" route="route_35" depart="3300"/>
    <vehicle id="veh_257" type="car" route="route_20" depart="3300"/>
    <vehicle id="veh_258" type="ev" route="route_33" depart="3300">
        <param key="has.battery.device" value="true"/>
        <param key="maximumBatteryCapacity" value="40000"/>
        <param key="actualBatteryCapacity" value="22785"/>
    </vehicle>
    <vehicle id="veh_259" type="car" route="route_58" depart="3300"/>
    <vehicle id="veh_260" type="ev" route="route_23" depart="3300">
        <param key="has.battery.device" value="true"/>
        <param key="maximumBatteryCapacity" value="100000"/>
        <param key="actualBatteryCapacity" value="60357"/>
    </vehicle>
    <vehicle id="veh_261" type="car" route="route_46" depart="3300"/>
    <vehicle id="veh_262" type="car" route="route_30" depart="3300"/>
    <vehicle id="veh_263" type="car" route="route_8" depart="3300"/>
    <vehicle id="veh_264" type="car" route="route_49" depart="3300"/>
    <vehicle id="veh_265" type="bus" route="route_63" depart="3300"/>
    <vehicle id="veh_266" type="car" route="route_19" depart="3300"/>
    <vehicle id="veh_267" type="car" route="route_41" depart="3300"/>
    <vehicle id="veh_268" type="car" route="route_41" depart="3300"/>
    <vehicle id="veh_269" type="ev" route="route_5" depart="3300">
        <param key="has.battery.device" value="true"/>
        <param key="maximumBatteryCapacity" value="100000"/>
        <param key="actualBatteryCapacity" value="69533"/>
    </vehicle>
    <vehicle id="veh_270" type="car" route="route_16" depart="3300"/>
    <vehicle id="veh_271" type="bus" route="route_4" depart="3300"/>
    <vehicle id="veh_272" type="taxi" route="route_62" depart="3300"/>
    <vehicle id="veh_273" type="bus" route="route_4" depart="3300"/>
    <vehicle id="veh_274" type="car" route="route_49" depart="3300"/>
    <vehicle id="veh_275" type="car" route="route_67" depart="3300"/>
    <vehicle id="veh_276" type="car" route="route_32" depart="3300"/>