<?xml version="1.0" ?>
<routes>
    <route id="route_0" edges="e155 e158"/>
    <route id="route_1" edges="e28 e49"/>
    <route id="route_2" edges="e6 e9"/>
    <route id="route_3" edges="e181 e201 e203"/>
    <route id="route_4" edges="e67 e69 e72"/>
    <route id="route_5" edges="e61 e82"/>
    <route id="route_6" edges="e55 e75 e78 e98"/>
    <route id="route_7" edges="e33 e36 e57"/>
    <route id="route_8" edges="e25 e27 e29 e31"/>
    <route id="route_9" edges="e165 e167 e188"/>
    <route id="route_10" edges="e214 e215 e216"/>
    <route id="route_11" edges="e133 e154"/>
    <route id="route_12" edges="e22 e42"/>
    <route id="route_13" edges="e144 e146 e167 e188"/>
    <route id="route_14" edges="e104 e125 e146"/>
    <route id="route_15" edges="e8 e10"/>
    <route id="route_16" edges="e53 e74 e94"/>
    <route id="route_17" edges="e57 e77"/>
    <route id="route_18" edges="e124 e145 e166 e186"/>
    <route id="route_19" edges="e147 e149 e152"/>
    <route id="route_20" edges="e182 e185 e206 e218 e219"/>
    <route id="route_21" edges="e142 e145 e165 e167 e188 e209"/>
    <route id="route_22" edges="e104 e125 e146 e167 e188 e209"/>
    <route id="route_23" edges="e214 e215 e216 e217 e218 e219"/>
    <route id="route_24" edges="e218 e219"/>
    <route id="route_25" edges="e98 e100 e102 e104 e125 e146 e167 e188"/>
    <route id="route_26" edges="e89 e110 e131 e152 e173 e193"/>
    <route id="route_27" edges="e54 e56 e59 e79 e81 e83"/>
    <route id="route_28" edges="e33 e35 e37 e39 e41"/>
    <route id="route_29" edges="e125 e146 e167 e188 e209"/>
    <route id="route_30" edges="e122 e142 e145 e166 e186 e188"/>
    <route id="route_31" edges="e22 e43 e64 e85 e106"/>
    <route id="route_32" edges="e184 e186 e188 e209"/>
    <route id="route_33" edges="e12 e14 e16 e19 e39"/>
    <route id="route_34" edges="e27 e30 e51 e71 e73 e76 e96 e98"/>
    <route id="route_35" edges="e37 e39 e41 e62 e83"/>
    <route id="route_36" edges="e153 e156 e176 e178 e181 e201 e204 e217"/>
    <route id="route_37" edges="e40 e61 e82 e102 e104 e125 e146 e167"/>
    <route id="route_38" edges="e194 e212 e213 e214 e215"/>
    <route id="route_39" edges="e167 e188 e209"/>
    <route id="route_40" edges="e217 e218 e219"/>
    <route id="route_41" edges="e146 e167 e188 e209"/>
    <route id="route_42" edges="e16 e19 e39 e41 e62 e83 e104"/>
    <route id="route_43" edges="e95 e115 e117 e120 e140 e142 e144 e146"/>
    <route id="route_44" edges="e93 e113 e115 e118 e139 e159"/>
    <route id="route_45" edges="e188 e209"/>
    <route id="route_46" edges="e113 e115 e118 e138 e140 e142 e145"/>
    <route id="route_47" edges="e128 e131 e151 e154 e175 e196 e213"/>
    <route id="route_48" edges="e62 e83 e104 e125 e146"/>
    <route id="route_49" edges="e135 e155 e158 e179 e199 e201"/>
    <route id="route_50" edges="e19 e39 e41 e62 e83 e104 e125 e146 e167"/>
    <route id="route_51" edges="e213 e214 e215 e216 e217 e218 e219"/>
    <route id="route_52" edges="e168 e170 e173 e193 e196 e213 e214 e215 e216 e217 e218"/>
    <route id="route_53" edges="e215 e216 e217 e218 e219"/>
    <route id="route_54" edges="e37 e40 e61 e82 e103 e123 e125 e146 e167 e188 e209"/>
    <route id="route_55" edges="e133 e154 e175 e196 e213 e214 e215 e216 e217"/>
    <route id="route_56" edges="e9 e29 e31 e34 e55 e75 e78 e99 e119 e122 e143 e164 e185 e206"/>
    <route id="route_57" edges="e204 e217 e218 e219"/>
    <route id="route_58" edges="e91 e111 e114 e135 e155 e158 e179 e199 e202 e216 e217 e218 e219"/>
    <route id="route_59" edges="e142 e145 e165 e167 e188 e209"/>
    <route id="route_60" edges="e134 e137 e157 e159 e161 e163 e165 e167 e188"/>
    <route id="route_61" edges="e35 e38 e59 e79 e82 e103 e124 e144 e146 e167 e188 e209"/>
    <route id="route_62" edges="e105 e108 e128 e130 e132 e135 e155 e158 e179 e200"/>
    <route id="route_63" edges="e32 e53 e73 e76 e97 e118 e138 e141 e162 e182 e185 e206 e218"/>
    <route id="route_64" edges="e11 e31 e34 e55 e76 e96 e98 e100 e102 e104 e125 e146 e167 e188"/>
    <route id="route_65" edges="e76 e97 e118 e138 e140 e143 e164 e184 e187 e208 e219"/>
    <route id="route_66" edges="e89 e110 e131 e151 e154 e174 e177 e198 e214 e215 e216"/>
    <route id="route_67" edges="e193 e196 e213 e214 e215 e216 e217 e218 e219"/>
    <route id="route_68" edges="e210 e211 e212 e213 e214 e215 e216 e217 e218 e219"/>
    <vehicle id="veh_74" type="bus" route="route_38" depart="0"/>
    <vehicle id="veh_236" type="ev" route="route_2" depart="0">
        <param key="has.battery.device" value="true"/>
        <param key="maximumBatteryCapacity" value="40000"/>
        <param key="actualBatteryCapacity" value="27400"/>
    </vehicle>
    <vehicle id="veh_262" type="car" route="route_67" depart="0"/>
    <vehicle id="veh_382" type="car" route="route_36" depart="0"/>
    <vehicle id="veh_431" type="car" route="route_60" depart="0"/>
    <vehicle id="veh_442" type="car" route="route_10" depart="0"/>
    <vehicle id="veh_471" type="taxi" route="route_17" depart="0"/>
    <vehicle id="veh_544" type="car" route="route_46" depart="0"/>
    <vehicle id="veh_566" type="car" route="route_19" depart="0"/>
    <vehicle id="veh_575" type="car" route="route_43" depart="0"/>
    <vehicle id="veh_646" type="car" route="route_14" depart="0"/>
    <vehicle id="veh_668" type="ev" route="route_16" depart="0">
        <param key="has.battery.device" value="true"/>
        <param key="maximumBatteryCapacity" value="100000"/>
        <param key="actualBatteryCapacity" value="53583"/>
    </vehicle>
    <vehicle id="veh_671" type="car" route="route_59" depart="0"/>
    <vehicle id="veh_708" type="car" route="route_1" depart="0"/>
    <vehicle id="veh_933" type="taxi" route="route_36" depart="0"/>
    <vehicle id="veh_977" type="car" route="route_40" depart="0"/>
    <vehicle id="veh_991" type="car" route="route_55" depart="0"/>
    <vehicle id="veh_1061" type="car" route="route_22" depart="0"/>
    <vehicle id="veh_1101" type="car" route="route_45" depart="0"/>
    <vehicle id="veh_1151" type="car" route="route_21" depart="0"/>
    <vehicle id="veh_1160" type="ev" route="route_61" depart="0">
        <param key="has.battery.device" value="true"/>
        <param key="maximumBatteryCapacity" value="40000"/>
        <param key="actualBatteryCapacity" value="19069"/>
    </vehicle>
    <vehicle id="veh_1289" type="car" route="route_61" depart="0"/>
    <vehicle id="veh_1097" type="car" route="route_22" depart="1"/>
    <vehicle id="veh_1252" type="car" route="route_33" depart="5"/>
    <vehicle id="veh_79" type="taxi" route="route_54" depart="11"/>
    <vehicle id="veh_1325" type="car" route="route_66" depart="22"/>
    <vehicle id="veh_37" type="taxi" route="route_59" depart="36"/>
    <vehicle id="veh_285" type="ev" route="route_54" depart="43">
        <param key="has.battery.device" value="true"/>
        <param key="maximumBatteryCapacity" value="60000"/>
        <param key="actualBatteryCapacity" value="38667"/>
    </vehicle>
    <vehicle id="veh_110" type="car" route="route_42" depart="73"/>
    <vehicle id="veh_13" type="car" route="route_14" depart="78"/>
    <vehicle id="veh_975" type="taxi" route="route_9" depart="99"/>
    <vehicle id="veh_568" type="car" route="route_60" depart="116"/>
    <vehicle id="veh_221" type="car" route="route_38" depart="119"/>
    <vehicle id="veh_740" type="car" route="route_2" depart="143"/>
    <vehicle id="veh_1286" type="car" route="route_20" depart="147"/>
    <vehicle id="veh_525" type="car" route="route_53" depart="175"/>
    <vehicle id="veh_608" type="car" route="route_4" depart="199"/>
    <vehicle id="veh_49" type="car" route="route_2" depart="213"/>
    <vehicle id="veh_429" type="ev" route="route_40" depart="217">
        <param key="has.battery.device" value="true"/>
        <param key="maximumBatteryCapacity" value="40000"/>
        <param key="actualBatteryCapacity" value="33258"/>
    </vehicle>
    <vehicle id="veh_1063" type="ev" route="route_17" depart="234">
        <param key="has.battery.device" value="true"/>
        <param key="maximumBatteryCapacity" value="40000"/>
        <param key="actualBatteryCapacity" value="31293"/>
    </vehicle>
    <vehicle id="veh_14" type="car" route="route_20" depart="247"/>
    <vehicle id="veh_396" type="car" route="route_47" depart="258"/>
    <vehicle id="veh_721" type="car" route="route_5" depart="260"/>
    <vehicle id="veh_438" type="car" route="route_23" depart="266"/>
    <vehicle id="veh_733" type="bus" route="route_7" depart="267"/>
    <vehicle id="veh_630" type="car" route="route_1" depart="276"/>
    <vehicle id="veh_1176" type="car" route="route_49" depart="276"/>
    <vehicle id="veh_520" type="car" route="route_65" depart="297"/>
    <vehicle id="veh_1031" type="ev" route="route_1" depart="298">
        <param key="has.battery.device" value="true"/>
        <param key="maximumBatteryCapacity" value="100000"/>
        <param key="actualBatteryCapacity" value="50785"/>
    </vehicle>
    <vehicle id="veh_531" type="car" route="route_11" depart="304"/>
    <vehicle id="veh_789" type="ev" route="route_41" depart="305">
        <param key="has.battery.device" value="true"/>
        <param key="maximumBatteryCapacity" value="100000"/>
        <param key="actualBatteryCapacity" value="35583"/>
    </vehicle>
    <vehicle id="veh_635" type="car" route="route_39" depart="310"/>
    <vehicle id="veh_1163" type="car" route="route_60" depart="319"/>
    <vehicle id="veh_526" type="taxi" route="route_20" depart="335"/>
    <vehicle id="veh_223" type="ev" route="route_63" depart="348">
        <param key="has.battery.device" value="true"/>
        <param key="maximumBatteryCapacity" value="40000"/>
        <param key="actualBatteryCapacity" value="19304"/>
    </vehicle>
    <vehicle id="veh_142" type="taxi" route="route_0" depart="353"/>
    <vehicle id="veh_482" type="car" route="route_3" depart="354"/>
    <vehicle id="veh_400" type="ev" route="route_17" depart="365">
        <param key="has.battery.device" value="true"/>
        <param key="maximumBatteryCapacity" value="60000"/>
        <param key="actualBatteryCapacity" value="43058"/>
    </vehicle>
    <vehicle id="veh_1194" type="car" route="route_14" depart="366"/>
    <vehicle id="veh_978" type="ev" route="route_22" depart="374">
        <param key="has.battery.device" value="true"/>
        <param key="maximumBatteryCapacity" value="100000"/>
        <param key="actualBatteryCapacity" value="55251"/>
    </vehicle>
    <vehicle id="veh_1047" type="car" route="route_41" depart="381"/>
    <vehicle id="veh_775" type="ev" route="route_57" depart="386">
        <param key="has.battery.device" value="true"/>
        <param key="maximumBatteryCapacity" value="60000"/>
        <param key="actualBatteryCapacity" value="46207"/>
    </vehicle>
    <vehicle id="veh_1183" type="car" route="route_18" depart="386"/>
    <vehicle id="veh_704" type="taxi" route="route_5" depart="399"/>
    <vehicle id="veh_1076" type="taxi" route="route_57" depart="399"/>
    <vehicle id="veh_1249" type="taxi" route="route_13" depart="399"/>
    <vehicle id="veh_130" type="ev" route="route_15" depart="404">
        <param key="has.battery.device" value="true"/>
        <param key="maximumBatteryCapacity" value="40000"/>
        <param key="actualBatteryCapacity" value="23074"/>
    </vehicle>
    <vehicle id="veh_412" type="car" route="route_45" depart="419"/>
    <vehicle id="veh_946" type="car" route="route_11" depart="427"/>
    <vehicle id="veh_925" type="car" route="route_62" depart="429"/>
    <vehicle id="veh_254" type="car" route="route_5" depart="432"/>
    <vehicle id="veh_861" type="car" route="route_68" depart="435"/>
    <vehicle id="veh_189" type="ev" route="route_37" depart="436">
        <param key="has.battery.device" value="true"/>
        <param key="maximumBatteryCapacity" value="60000"/>
        <param key="actualBatteryCapacity" value="38589"/>
    </vehicle>
    <vehicle id="veh_472" type="car" route="route_57" depart="436"/>
    <vehicle id="veh_643" type="car" route="route_10" depart="447"/>
    <vehicle id="veh_815" type="car" route="route_23" depart="462"/>
    <vehicle id="veh_44" type="car" route="route_66" depart="469"/>
    <vehicle id="veh_578" type="car" route="route_35" depart="469"/>
    <vehicle id="veh_95" type="ev" route="route_36" depart="482">
        <param key="has.battery.device" value="true"/>
        <param key="maximumBatteryCapacity" value="60000"/>
        <param key="actualBatteryCapacity" value="39421"/>
    </vehicle>
    <vehicle id="veh_1037" type="car" route="route_18" depart="482"/>
    <vehicle id="veh_346" type="car" route="route_7" depart="496"/>
    <vehicle id="veh_932" type="car" route="route_63" depart="496"/>
    <vehicle id="veh_1147" type="ev" route="route_20" depart="503">
        <param key="has.battery.device" value="true"/>
        <param key="maximumBatteryCapacity" value="40000"/>
        <param key="actualBatteryCapacity" value="33310"/>
    </vehicle>
    <vehicle id="veh_271" type="car" route="route_47" depart="507"/>
    <vehicle id="veh_267" type="car" route="route_29" depart="512"/>
    <vehicle id="veh_969" type="car" route="route_38" depart="512"/>
    <vehicle id="veh_23" type="car" route="route_8" depart="517"/>
    <vehicle id="veh_485" type="car" route="route_11" depart="519"/>
    <vehicle id="veh_100" type="ev" route="route_41" depart="526">
        <param key="has.battery.device" value="true"/>
        <param key="maximumBatteryCapacity" value="40000"/>
        <param key="actualBatteryCapacity" value="33346"/>
    </vehicle>
    <vehicle id="veh_1265" type="car" route="route_45" depart="527"/>
    <vehicle id="veh_19" type="ev" route="route_31" depart="528">
        <param key="has.battery.device" value="true"/>
        <param key="maximumBatteryCapacity" value="100000"/>
        <param key="actualBatteryCapacity" value="79834"/>
    </vehicle>
    <vehicle id="veh_703" type="ev" route="route_6" depart="532">
        <param key="has.battery.device" value="true"/>
        <param key="maximumBatteryCapacity" value="100000"/>
        <param key="actualBatteryCapacity" value="79764"/>
    </vehicle>
    <vehicle id="veh_347" type="car" route="route_43" depart="533"/>
    <vehicle id="veh_674" type="taxi" route="route_44" depart="533"/>
    <vehicle id="veh_749" type="ev" route="route_31" depart="534">
        <param key="has.battery.device" value="true"/>
        <param key="maximumBatteryCapacity" value="60000"/>
        <param key="actualBatteryCapacity" value="34523"/>
    </vehicle>
    <vehicle id="veh_1208" type="car" route="route_12" depart="537"/>
    <vehicle id="veh_123" type="car" route="route_6" depart="538"/>
    <vehicle id="veh_502" type="car" route="route_19" depart="541"/>
    <vehicle id="veh_1162" type="taxi" route="route_37" depart="549"/>
    <vehicle id="veh_499" type="taxi" route="route_35" depart="555"/>
    <vehicle id="veh_437" type="car" route="route_49" depart="557"/>
    <vehicle id="veh_872" type="ev" route="route_47" depart="558">
        <param key="has.battery.device" value="true"/>
        <param key="maximumBatteryCapacity" value="60000"/>
        <param key="actualBatteryCapacity" value="22210"/>
    </vehicle>
    <vehicle id="veh_204" type="taxi" route="route_46" depart="560"/>
    <vehicle id="veh_1231" type="car" route="route_11" depart="567"/>
    <vehicle id="veh_906" type="car" route="route_54" depart="576"/>
    <vehicle id="veh_751" type="taxi" route="route_10" depart="583"/>
    <vehicle id="veh_722" type="car" route="route_28" depart="586"/>
    <vehicle id="veh_830" type="car" route="route_10" depart="589"/>
    <vehicle id="veh_781" type="taxi" route="route_48" depart="598"/>
    <vehicle id="veh_1191" type="car" route="route_66" depart="599"/>
    <vehicle id="veh_1285" type="ev" route="route_21" depart="601">
        <param key="has.battery.device" value="true"/>
        <param key="maximumBatteryCapacity" value="60000"/>
        <param key="actualBatteryCapacity" value="25537"/>
    </vehicle>
    <vehicle id="veh_38" type="car" route="route_48" depart="604"/>
    <vehicle id="veh_1153" type="bus" route="route_12" depart="609"/>
    <vehicle id="veh_147" type="car" route="route_48" depart="611"/>
    <vehicle id="veh_392" type="ev" route="route_28" depart="611">
        <param key="has.battery.device" value="true"/>
        <param key="maximumBatteryCapacity" value="60000"/>
        <param key="actualBatteryCapacity" value="21301"/>
    </vehicle>
    <vehicle id="veh_1315" type="ev" route="route_48" depart="619">
        <param key="has.battery.device" value="true"/>
        <param key="maximumBatteryCapacity" value="40000"/>
        <param key="actualBatteryCapacity" value="22002"/>
    </vehicle>
    <vehicle id="veh_444" type="car" route="route_41" depart="625"/>
    <vehicle id="veh_639" type="car" route="route_58" depart="634"/>
    <vehicle id="veh_1066" type="car" route="route_33" depart="634"/>
    <vehicle id="veh_638" type="taxi" route="route_17" depart="639"/>
    <vehicle id="veh_1073" type="car" route="route_48" depart="645"/>
    <vehicle id="veh_706" type="car" route="route_27" depart="647"/>
    <vehicle id="veh_940" type="taxi" route="route_16" depart="647"/>
    <vehicle id="veh_741" type="ev" route="route_2" depart="648">
        <param key="has.battery.device" value="true"/>
        <param key="maximumBatteryCapacity" value="100000"/>
        <param key="actualBatteryCapacity" value="54680"/>
    </vehicle>
    <vehicle id="veh_793" type="car" route="route_21" depart="650"/>
    <vehicle id="veh_250" type="ev" route="route_8" depart="665">
        <param key="has.battery.device" value="true"/>
        <param key="maximumBatteryCapacity" value="60000"/>
        <param key="actualBatteryCapacity" value="36939"/>
    </vehicle>
    <vehicle id="veh_697" type="car" route="route_7" depart="673"/>
    <vehicle id="veh_952" type="car" route="route_61" depart="673"/>
    <vehicle id="veh_265" type="car" route="route_14" depart="676"/>
    <vehicle id="veh_193" type="car" route="route_63" depart="678"/>
    <vehicle id="veh_607" type="car" route="route_22" depart="679"/>
    <vehicle id="veh_1210" type="ev" route="route_41" depart="680">
        <param key="has.battery.device" value="true"/>
        <param key="maximumBatteryCapacity" value="100000"/>
        <param key="actualBatteryCapacity" value="56586"/>
    </vehicle>
    <vehicle id="veh_283" type="taxi" route="route_13" depart="685"/>
    <vehicle id="veh_146" type="car" route="route_44" depart="686"/>
    <vehicle id="veh_139" type="car" route="route_35" depart="692"/>
    <vehicle id="veh_1137" type="car" route="route_6" depart="695"/>
    <vehicle id="veh_1036" type="car" route="route_7" depart="696"/>
    <vehicle id="veh_1245" type="car" route="route_50" depart="698"/>
    <vehicle id="veh_684" type="car" route="route_41" depart="700"/>
    <vehicle id="veh_35" type="car" route="route_11" depart="701"/>
    <vehicle id="veh_325" type="ev" route="route_65" depart="707">
        <param key="has.battery.device" value="true"/>
        <param key="maximumBatteryCapacity" value="100000"/>
        <param key="actualBatteryCapacity" value="36841"/>
    </vehicle>
    <vehicle id="veh_533" type="car" route="route_30" depart="710"/>
    <vehicle id="veh_1255" type="car" route="route_7" depart="711"/>
    <vehicle id="veh_244" type="car" route="route_32" depart="719"/>
    <vehicle id="veh_459" type="car" route="route_47" depart="721"/>
    <vehicle id="veh_63" type="taxi" route="route_22" depart="723"/>
    <vehicle id="veh_158" type="car" route="route_19" depart="727"/>
    <vehicle id="veh_1220" type="car" route="route_3" depart="731"/>
    <vehicle id="veh_430" type="car" route="route_65" depart="735"/>
    <vehicle id="veh_117" type="taxi" route="route_14" depart="748"/>
    <vehicle id="veh_985" type="car" route="route_68" depart="757"/>
    <vehicle id="veh_26" type="car" route="route_46" depart="764"/>
    <vehicle id="veh_1125" type="car" route="route_4" depart="768"/>
    <vehicle id="veh_199" type="car" route="route_5" depart="771"/>
    <vehicle id="veh_1123" type="car" route="route_37" depart="771"/>
    <vehicle id="veh_541" type="ev" route="route_35" depart="783">
        <param key="has.battery.device" value="true"/>
        <param key="maximumBatteryCapacity" value="100000"/>
        <param key="actualBatteryCapacity" value="57021"/>
    </vehicle>
    <vehicle id="veh_681" type="car" route="route_29" depart="783"/>
    <vehicle id="veh_411" type="car" route="route_37" depart="787"/>
    <vehicle id="veh_613" type="taxi" route="route_13" depart="787"/>
    <vehicle id="veh_842" type="car" route="route_10" depart="789"/>
    <vehicle id="veh_1065" type="ev" route="route_10" depart="792">
        <param key="has.battery.device" value="true"/>
        <param key="maximumBatteryCapacity" value="60000"/>
        <param key="actualBatteryCapacity" value="31400"/>
    </vehicle>
    <vehicle id="veh_676" type="car" route="route_14" depart="800"/>
    <vehicle id="veh_62" type="car" route="route_37" depart="804"/>
    <vehicle id="veh_653" type="car" route="route_65" depart="804"/>
    <vehicle id="veh_1179" type="car" route="route_30" depart="806"/>
    <vehicle id="veh_1288" type="ev" route="route_51" depart="806">
        <param key="has.battery.device" value="true"/>
        <param key="maximumBatteryCapacity" value="60000"/>
        <param key="actualBatteryCapacity" value="40805"/>
    </vehicle>
    <vehicle id="veh_1146" type="taxi" route="route_13" depart="813"/>
    <vehicle id="veh_1272" type="car" route="route_39" depart="816"/>
    <vehicle id="veh_487" type="car" route="route_52" depart="826"/>
    <vehicle id="veh_692" type="car" route="route_40" depart="827"/>
    <vehicle id="veh_794" type="car" route="route_21" depart="827"/>
    <vehicle id="veh_227" type="car" route="route_19" depart="830"/>
    <vehicle id="veh_182" type="car" route="route_59" depart="836"/>
    <vehicle id="veh_945" type="ev" route="route_29" depart="836">
        <param key="has.battery.device" value="true"/>
        <param key="maximumBatteryCapacity" value="100000"/>
        <param key="actualBatteryCapacity" value="48330"/>
    </vehicle>
    <vehicle id="veh_406" type="car" route="route_36" depart="839"/>
    <vehicle id="veh_1316" type="ev" route="route_19" depart="841">
        <param key="has.battery.device" value="true"/>
        <param key="maximumBatteryCapacity" value="60000"/>
        <param key="actualBatteryCapacity" value="35078"/>
    </vehicle>
    <vehicle id="veh_132" type="car" route="route_37" depart="843"/>
    <vehicle id="veh_449" type="car" route="route_45" depart="846"/>
    <vehicle id="veh_33" type="car" route="route_34" depart="848"/>
    <vehicle id="veh_1107" type="ev" route="route_67" depart="851">
        <param key="has.battery.device" value="true"/>
        <param key="maximumBatteryCapacity" value="100000"/>
        <param key="actualBatteryCapacity" value="43128"/>
    </vehicle>
    <vehicle id="veh_1105" type="car" route="route_22" depart="864"/>
    <vehicle id="veh_496" type="bus" route="route_28" depart="866"/>
    <vehicle id="veh_457" type="car" route="route_4" depart="868"/>
    <vehicle id="veh_921" type="car" route="route_48" depart="876"/>
    <vehicle id="veh_263" type="taxi" route="route_64" depart="878"/>
    <vehicle id="veh_1029" type="car" route="route_31" depart="879"/>
    <vehicle id="veh_936" type="car" route="route_6" depart="880"/>
    <vehicle id="veh_1243" type="taxi" route="route_59" depart="886"/>
    <vehicle id="veh_16" type="car" route="route_39" depart="888"/>
    <vehicle id="veh_634" type="car" route="route_51" depart="889"/>
    <vehicle id="veh_567" type="car" route="route_26" depart="892"/>
    <vehicle id="veh_324" type="taxi" route="route_21" depart="894"/>
    <vehicle id="veh_832" type="bus" route="route_5" depart="896"/>
    <vehicle id="veh_355" type="car" route="route_42" depart="897"/>
    <vehicle id="veh_994" type="car" route="route_7" depart="898"/>
    <vehicle id="veh_837" type="car" route="route_28" depart="901"/>
    <vehicle id="veh_1150" type="car" route="route_55" depart="907"/>
    <vehicle id="veh_126" type="car" route="route_62" depart="908"/>
    <vehicle id="veh_626" type="car" route="route_61" depart="909"/>
    <vehicle id="veh_1184" type="ev" route="route_21" depart="909">
        <param key="has.battery.device" value="true"/>
        <param key="maximumBatteryCapacity" value="60000"/>
        <param key="actualBatteryCapacity" value="24223"/>
    </vehicle>
    <vehicle id="veh_1178" type="car" route="route_60" depart="910"/>
    <vehicle id="veh_452" type="ev" route="route_65" depart="912">
        <param key="has.battery.device" value="true"/>
        <param key="maximumBatteryCapacity" value="100000"/>
        <param key="actualBatteryCapacity" value="54372"/>
    </vehicle>
    <vehicle id="veh_1186" type="ev" route="route_55" depart="915">
        <param key="has.battery.device" value="true"/>
        <param key="maximumBatteryCapacity" value="60000"/>
        <param key="actualBatteryCapacity" value="20821"/>
    </vehicle>
    <vehicle id="veh_274" type="car" route="route_47" depart="916"/>
    <vehicle id="veh_597" type="ev" route="route_60" depart="919">
        <param key="has.battery.device" value="true"/>
        <param key="maximumBatteryCapacity" value="60000"/>
        <param key="actualBatteryCapacity" value="29890"/>
    </vehicle>
    <vehicle id="veh_731" type="car" route="route_45" depart="919"/>
    <vehicle id="veh_517" type="car" route="route_40" depart="920"/>
    <vehicle id="veh_752" type="car" route="route_4" depart="921"/>
    <vehicle id="veh_160" type="car" route="route_42" depart="922"/>
    <vehicle id="veh_1189" type="car" route="route_8" depart="928"/>
    <vehicle id="veh_982" type="car" route="route_64" depart="929"/>
    <vehicle id="veh_426" type="car" route="route_61" depart="931"/>
    <vehicle id="veh_481" type="car" route="route_30" depart="940"/>
    <vehicle id="veh_754" type="ev" route="route_10" depart="945">
        <param key="has.battery.device" value="true"/>
        <param key="maximumBatteryCapacity" value="40000"/>
        <param key="actualBatteryCapacity" value="28868"/>
    </vehicle>
    <vehicle id="veh_447" type="bus" route="route_56" depart="954"/>
    <vehicle id="veh_1326" type="car" route="route_45" depart="954"/>
    <vehicle id="veh_205" type="car" route="route_34" depart="955"/>
    <vehicle id="veh_260" type="ev" route="route_18" depart="965">
        <param key="has.battery.device" value="true"/>
        <param key="maximumBatteryCapacity" value="40000"/>
        <param key="actualBatteryCapacity" value="19730"/>
    </vehicle>
    <vehicle id="veh_750" type="car" route="route_28" depart="969"/>
    <vehicle id="veh_601" type="car" route="route_36" depart="970"/>
    <vehicle id="veh_1263" type="car" route="route_28" depart="971"/>
    <vehicle id="veh_134" type="car" route="route_61" depart="972"/>
    <vehicle id="veh_831" type="ev" route="route_45" depart="973">
        <param key="has.battery.device" value="true"/>
        <param key="maximumBatteryCapacity" value="40000"/>
        <param key="actualBatteryCapacity" value="27782"/>
    </vehicle>
    <vehicle id="veh_121" type="car" route="route_24" depart="981"/>
    <vehicle id="veh_18" type="car" route="route_25" depart="982"/>
    <vehicle id="veh_513" type="car" route="route_20" depart="983"/>
    <vehicle id="veh_529" type="car" route="route_65" depart="986"/>
    <vehicle id="veh_1267" type="car" route="route_23" depart="986"/>
    <vehicle id="veh_390" type="car" route="route_36" depart="991"/>
    <vehicle id="veh_1305" type="car" route="route_24" depart="991"/>
    <vehicle id="veh_331" type="bus" route="route_63" depart="992"/>
    <vehicle id="veh_809" type="car" route="route_40" depart="994"/>
    <vehicle id="veh_170" type="car" route="route_38" depart="999"/>
    <vehicle id="veh_196" type="car" route="route_45" depart="1004"/>
    <vehicle id="veh_498" type="car" route="route_10" depart="1011"/>
    <vehicle id="veh_507" type="car" route="route_53" depart="1022"/>
    <vehicle id="veh_493" type="car" route="route_7" depart="1024"/>
    <vehicle id="veh_536" type="taxi" route="route_1" depart="1025"/>
    <vehicle id="veh_758" type="car" route="route_5" depart="1027"/>
    <vehicle id="veh_181" type="car" route="route_1" depart="1028"/>
    <vehicle id="veh_589" type="car" route="route_10" depart="1029"/>
    <vehicle id="veh_587" type="car" route="route_18" depart="1035"/>
    <vehicle id="veh_188" type="car" route="route_61" depart="1037"/>
    <vehicle id="veh_1149" type="car" route="route_61" depart="1037"/>
    <vehicle id="veh_56" type="taxi" route="route_24" depart="1044"/>
    <vehicle id="veh_380" type="car" route="route_24" depart="1044"/>
    <vehicle id="veh_1218" type="ev" route="route_17" depart="1048">
        <param key="has.battery.device" value="true"/>
        <param key="maximumBatteryCapacity" value="100000"/>
        <param key="actualBatteryCapacity" value="60407"/>
    </vehicle>
    <vehicle id="veh_856" type="bus" route="route_55" depart="1050"/>
    <vehicle id="veh_509" type="car" route="route_37" depart="1052"/>
    <vehicle id="veh_300" type="car" route="route_56" depart="1053"/>
    <vehicle id="veh_359" type="car" route="route_39" depart="1055"/>
    <vehicle id="veh_336" type="car" route="route_38" depart="1057"/>
    <vehicle id="veh_340" type="ev" route="route_9" depart="1060">
        <param key="has.battery.device" value="true"/>
        <param key="maximumBatteryCapacity" value="60000"/>
        <param key="actualBatteryCapacity" value="47941"/>
    </vehicle>
    <vehicle id="veh_163" type="car" route="route_62" depart="1061"/>