<?xml version="1.0" ?>
<additional>
    <tlLogic id="0" type="static" programID="0" offset="0">
        <phase duration="42" state="GGGGrrrrGGGGrrrr"/>
        <phase duration="3" state="yyyyrrrryyyyrrrr"/>
        <phase duration="42" state="rrrrGGGGrrrrGGGG"/>
        <phase duration="3" state="rrrryyyyrrrryyyy"/>
    </tlLogic>
    <tlLogic id="3" type="static" programID="0" offset="0">
        <phase duration="42" state="GGGGrrrrGGGGrrrr"/>
        <phase duration="3" state="yyyyrrrryyyyrrrr"/>
        <phase duration="42" state="rrrrGGGGrrrrGGGG"/>
        <phase duration="3" state="rrrryyyyrrrryyyy"/>
    </tlLogic>
    <tlLogic id="6" type="static" programID="0" offset="0">
        <phase duration="42" state="GGGGrrrrGGGGrrrr"/>
        <phase duration="3" state="yyyyrrrryyyyrrrr"/>
        <phase duration="42" state="rrrrGGGGrrrrGGGG"/>
        <phase duration="3" state="rrrryyyyrrrryyyy"/>
    </tlLogic>
    <tlLogic id="9" type="static" programID="0" offset="0">
        <phase duration="42" state="GGGGrrrrGGGGrrrr"/>
        <phase duration="3" state="yyyyrrrryyyyrrrr"/>
        <phase duration="42" state="rrrrGGGGrrrrGGGG"/>
        <phase duration="3" state="rrrryyyyrrrryyyy"/>
    </tlLogic>
    <tlLogic id="12" type="static" programID="0" offset="0">
        <phase duration="42" state="GGGGrrrrGGGGrrrr"/>
        <phase duration="3" state="yyyyrrrryyyyrrrr"/>
        <phase duration="42" state="rrrrGGGGrrrrGGGG"/>
        <phase duration="3" state="rrrryyyyrrrryyyy"/>
    </tlLogic>
    <tlLogic id="15" type="static" programID="0" offset="0">
        <phase duration="42" state="GGGGrrrrGGGGrrrr"/>
        <phase duration="3" state="yyyyrrrryyyyrrrr"/>
        <phase duration="42" state="rrrrGGGGrrrrGGGG"/>
        <phase duration="3" state="rrrryyyyrrrryyyy"/>
    </tlLogic>
    <tlLogic id="18" type="static" programID="0" offset="0">
        <phase duration="42" state="GGGGrrrrGGGGrrrr"/>
        <phase duration="3" state="yyyyrrrryyyyrrrr"/>
        <phase duration="42" state="rrrrGGGGrrrrGGGG"/>
        <phase duration="3" state="rrrryyyyrrrryyyy"/>
    </tlLogic>
    <tlLogic id="21" type="static" programID="0" offset="0">
        <phase duration="42" state="GGGGrrrrGGGGrrrr"/>
        <phase duration="3" state="yyyyrrrryyyyrrrr"/>
        <phase duration="42" state="rrrrGGGGrrrrGGGG"/>
        <phase duration="3" state="rrrryyyyrrrryyyy"/>
    </tlLogic>
    <tlLogic id="24" type="static" programID="0" offset="0">
        <phase duration="42" state="GGGGrrrrGGGGrrrr"/>
        <phase duration="3" state="yyyyrrrryyyyrrrr"/>
        <phase duration="42" state="rrrrGGGGrrrrGGGG"/>
        <phase duration="3" state="rrrryyyyrrrryyyy"/>
    </tlLogic>
    <tlLogic id="27" type="static" programID="0" offset="0">
        <phase duration="42" state="GGGGrrrrGGGGrrrr"/>
        <phase duration="3" state="yyyyrrrryyyyrrrr"/>
        <phase duration="42" state="rrrrGGGGrrrrGGGG"/>
        <phase duration="3" state="rrrryyyyrrrryyyy"/>
    </tlLogic>
    <tlLogic id="30" type="static" programID="0" offset="0">
        <phase duration="42" state="GGGGrrrrGGGGrrrr"/>
        <phase duration="3" state="yyyyrrrryyyyrrrr"/>
        <phase duration="42" state="rrrrGGGGrrrrGGGG"/>
        <phase duration="3" state="rrrryyyyrrrryyyy"/>
    </tlLogic>
    <tlLogic id="33" type="static" programID="0" offset="0">
        <phase duration="42" state="GGGGrrrrGGGGrrrr"/>
        <phase duration="3" state="yyyyrrrryyyyrrrr"/>
        <phase duration="42" state="rrrrGGGGrrrrGGGG"/>
        <phase duration="3" state="rrrryyyyrrrryyyy"/>
    </tlLogic>
    <tlLogic id="36" type="static" programID="0" offset="0">
        <phase duration="42" state="GGGGrrrrGGGGrrrr"/>
        <phase duration="3" state="yyyyrrrryyyyrrrr"/>
        <phase duration="42" state="rrrrGGGGrrrrGGGG"/>
        <phase duration="3" state="rrrryyyyrrrryyyy"/>
    </tlLogic>
    <tlLogic id="39" type="static" programID="0" offset="0">
        <phase duration="42" state="GGGGrrrrGGGGrrrr"/>
        <phase duration="3" state="yyyyrrrryyyyrrrr"/>
        <phase duration="42" state="rrrrGGGGrrrrGGGG"/>
        <phase duration="3" state="rrrryyyyrrrryyyy"/>
    </tlLogic>
    <tlLogic id="42" type="static" programID="0" offset="0">
        <phase duration="42" state="GGGGrrrrGGGGrrrr"/>
        <phase duration="3" state="yyyyrrrryyyyrrrr"/>
        <phase duration="42" state="rrrrGGGGrrrrGGGG"/>
        <phase duration="3" state="rrrryyyyrrrryyyy"/>
    </tlLogic>
    <tlLogic id="45" type="static" programID="0" offset="0">
        <phase duration="42" state="GGGGrrrrGGGGrrrr"/>
        <phase duration="3" state="yyyyrrrryyyyrrrr"/>
        <phase duration="42" state="rrrrGGGGrrrrGGGG"/>
        <phase duration="3" state="rrrryyyyrrrryyyy"/>
    </tlLogic>
    <tlLogic id="48" type="static" programID="0" offset="0">
        <phase duration="42" state="GGGGrrrrGGGGrrrr"/>
        <phase duration="3" state="yyyyrrrryyyyrrrr"/>
        <phase duration="42" state="rrrrGGGGrrrrGGGG"/>
        <phase duration="3" state="rrrryyyyrrrryyyy"/>
    </tlLogic>
    <tlLogic id="51" type="static" programID="0" offset="0">
        <phase duration="42" state="GGGGrrrrGGGGrrrr"/>
        <phase duration="3" state="yyyyrrrryyyyrrrr"/>
        <phase duration="42" state="rrrrGGGGrrrrGGGG"/>
        <phase duration="3" state="rrrryyyyrrrryyyy"/>
    </tlLogic>
    <tlLogic id="54" type="static" programID="0" offset="0">
        <phase duration="42" state="GGGGrrrrGGGGrrrr"/>
        <phase duration="3" state="yyyyrrrryyyyrrrr"/>
        <phase duration="42" state="rrrrGGGGrrrrGGGG"/>
        <phase duration="3" state="rrrryyyyrrrryyyy"/>
    </tlLogic>
    <tlLogic id="57" type="static" programID="0" offset="0">
        <phase duration="42" state="GGGGrrrrGGGGrrrr"/>
        <phase duration="3" state="yyyyrrrryyyyrrrr"/>
        <phase duration="42" state="rrrrGGGGrrrrGGGG"/>
        <phase duration="3" state="rrrryyyyrrrryyyy"/>
    </tlLogic>
    <tlLogic id="60" type="static" programID="0" offset="0">
        <phase duration="42" state="GGGGrrrrGGGGrrrr"/>
        <phase duration="3" state="yyyyrrrryyyyrrrr"/>
        <phase duration="42" state="rrrrGGGGrrrrGGGG"/>
        <phase duration="3" state="rrrryyyyrrrryyyy"/>
    </tlLogic>
    <tlLogic id="63" type="static" programID="0" offset="0">
        <phase duration="42" state="GGGGrrrrGGGGrrrr"/>
        <phase duration="3" state="yyyyrrrryyyyrrrr"/>
        <phase duration="42" state="rrrrGGGGrrrrGGGG"/>
        <phase duration="3" state="rrrryyyyrrrryyyy"/>
    </tlLogic>
    <tlLogic id="66" type="static" programID="0" offset="0">
        <phase duration="42" state="GGGGrrrrGGGGrrrr"/>
        <phase duration="3" state="yyyyrrrryyyyrrrr"/>
        <phase duration="42" state="rrrrGGGGrrrrGGGG"/>
        <phase duration="3" state="rrrryyyyrrrryyyy"/>
    </tlLogic>
    <tlLogic id="69" type="static" programID="0" offset="0">
        <phase duration="42" state="GGGGrrrrGGGGrrrr"/>
        <phase duration="3" state="yyyyrrrryyyyrrrr"/>
        <phase duration="42" state="rrrrGGGGrrrrGGGG"/>
        <phase duration="3" state="rrrryyyyrrrryyyy"/>
    </tlLogic>
    <tlLogic id="72" type="static" programID="0" offset="0">
        <phase duration="42" state="GGGGrrrrGGGGrrrr"/>
        <phase duration="3" state="yyyyrrrryyyyrrrr"/>
        <phase duration="42" state="rrrrGGGGrrrrGGGG"/>
        <phase duration="3" state="rrrryyyyrrrryyyy"/>
    </tlLogic>
    <tlLogic id="75" type="static" programID="0" offset="0">
        <phase duration="42" state="GGGGrrrrGGGGrrrr"/>
        <phase duration="3" state="yyyyrrrryyyyrrrr"/>
        <phase duration="42" state="rrrrGGGGrrrrGGGG"/>
        <phase duration="3" state="rrrryyyyrrrryyyy"/>
    </tlLogic>
    <tlLogic id="78" type="static" programID="0" offset="0">
        <phase duration="42" state="GGGGrrrrGGGGrrrr"/>
        <phase duration="3" state="yyyyrrrryyyyrrrr"/>
        <phase duration="42" state="rrrrGGGGrrrrGGGG"/>
        <phase duration="3" state="rrrryyyyrrrryyyy"/>
    </tlLogic>
    <tlLogic id="81" type="static" programID="0" offset="0">
        <phase duration="42" state="GGGGrrrrGGGGrrrr"/>
        <phase duration="3" state="yyyyrrrryyyyrrrr"/>
        <phase duration="42" state="rrrrGGGGrrrrGGGG"/>
        <phase duration="3" state="rrrryyyyrrrryyyy"/>
    </tlLogic>
    <tlLogic id="84" type="static" programID="0" offset="0">
        <phase duration="42" state="GGGGrrrrGGGGrrrr"/>
        <phase duration="3" state="yyyyrrrryyyyrrrr"/>
        <phase duration="42" state="rrrrGGGGrrrrGGGG"/>
        <phase duration="3" state="rrrryyyyrrrryyyy"/>
    </tlLogic>
    <tlLogic id="87" type="static" programID="0" offset="0">
        <phase duration="42" state="GGGGrrrrGGGGrrrr"/>
        <phase duration="3" state="yyyyrrrryyyyrrrr"/>
        <phase duration="42" state="rrrrGGGGrrrrGGGG"/>
        <phase duration="3" state="rrrryyyyrrrryyyy"/>
    </tlLogic>
    <tlLogic id="90" type="static" programID="0" offset="0">
        <phase duration="42" state="GGGGrrrrGGGGrrrr"/>
        <phase duration="3" state="yyyyrrrryyyyrrrr"/>
        <phase duration="42" state="rrrrGGGGrrrrGGGG"/>
        <phase duration="3" state="rrrryyyyrrrryyyy"/>
    </tlLogic>
    <tlLogic id="93" type="static" programID="0" offset="0">
        <phase duration="42" state="GGGGrrrrGGGGrrrr"/>
        <phase duration="3" state="yyyyrrrryyyyrrrr"/>
        <phase duration="42" state="rrrrGGGGrrrrGGGG"/>
        <phase duration="3" state="rrrryyyyrrrryyyy"/>
    </tlLogic>
    <tlLogic id="96" type="static" programID="0" offset="0">
        <phase duration="42" state="GGGGrrrrGGGGrrrr"/>
        <phase duration="3" state="yyyyrrrryyyyrrrr"/>
        <phase duration="42" state="rrrrGGGGrrrrGGGG"/>
        <phase duration="3" state="rrrryyyyrrrryyyy"/>
    </tlLogic>
    <tlLogic id="99" type="static" programID="0" offset="0">
        <phase duration="42" state="GGGGrrrrGGGGrrrr"/>
        <phase duration="3" state="yyyyrrrryyyyrrrr"/>
        <phase duration="42" state="rrrrGGGGrrrrGGGG"/>
        <phase duration="3" state="rrrryyyyrrrryyyy"/>
    </tlLogic>
    <tlLogic id="102" type="static" programID="0" offset="0">
        <phase duration="42" state="GGGGrrrrGGGGrrrr"/>
        <phase duration="3" state="yyyyrrrryyyyrrrr"/>
        <phase duration="42" state="rrrrGGGGrrrrGGGG"/>
        <phase duration="3" state="rrrryyyyrrrryyyy"/>
    </tlLogic>
    <tlLogic id="105" type="static" programID="0" offset="0">
        <phase duration="42" state="GGGGrrrrGGGGrrrr"/>
        <phase duration="3" state="yyyyrrrryyyyrrrr"/>
        <phase duration="42" state="rrrrGGGGrrrrGGGG"/>
        <phase duration="3" state="rrrryyyyrrrryyyy"/>
    </tlLogic>
    <tlLogic id="108" type="static" programID="0" offset="0">
        <phase duration="42" state="GGGGrrrrGGGGrrrr"/>
        <phase duration="3" state="yyyyrrrryyyyrrrr"/>
        <phase duration="42" state="rrrrGGGGrrrrGGGG"/>
        <phase duration="3" state="rrrryyyyrrrryyyy"/>
    </tlLogic>
    <tlLogic id="111" type="static" programID="0" offset="0">
        <phase duration="42" state="GGGGrrrrGGGGrrrr"/>
        <phase duration="3" state="yyyyrrrryyyyrrrr"/>
        <phase duration="42" state="rrrrGGGGrrrrGGGG"/>
        <phase duration="3" state="rrrryyyyrrrryyyy"/>
    </tlLogic>
    <tlLogic id="114" type="static" programID="0" offset="0">
        <phase duration="42" state="GGGGrrrrGGGGrrrr"/>
        <phase duration="3" state="yyyyrrrryyyyrrrr"/>
        <phase duration="42" state="rrrrGGGGrrrrGGGG"/>
        <phase duration="3" state="rrrryyyyrrrryyyy"/>
    </tlLogic>
    <tlLogic id="117" type="static" programID="0" offset="0">
        <phase duration="42" state="GGGGrrrrGGGGrrrr"/>
        <phase duration="3" state="yyyyrrrryyyyrrrr"/>
        <phase duration="42" state="rrrrGGGGrrrrGGGG"/>
        <phase duration="3" state="rrrryyyyrrrryyyy"/>
    </tlLogic>
    <tlLogic id="120" type="static" programID="0" offset="0">
        <phase duration="42" state="GGGGrrrrGGGGrrrr"/>
        <phase duration="3" state="yyyyrrrryyyyrrrr"/>
        <phase duration="42" state="rrrrGGGGrrrrGGGG"/>
        <phase duration="3" state="rrrryyyyrrrryyyy"/>
    </tlLogic>
</additional>