<?xml version="1.0" ?>
<routes>
    <vType id="car" accel="2.6" decel="4.5" sigma="0.5" length="4.5" minGap="2.5" maxSpeed="33.33" color="1,1,0" vClass="passenger"/>
    <vType id="ev" accel="3.0" decel="4.5" sigma="0.5" length="4.8" minGap="2.5" maxSpeed="30.56" color="0,1,0" vClass="passenger" emissionClass="Zero">
        <param key="has.battery.device" value="true"/>
        <param key="maximumBatteryCapacity" value="60000"/>
        <param key="actualBatteryCapacity" value="50000"/>
    </vType>
    <vType id="bus" accel="1.2" decel="4.0" sigma="0.1" length="12.0" minGap="3" maxSpeed="22.22" color="0,0,1" vClass="bus"/>
    <vType id="taxi" accel="2.8" decel="5.0" sigma="0.8" length="4.5" minGap="2.0" maxSpeed="33.33" color="1,1,0.3" vClass="taxi"/>
</routes>