<?xml version="1.0" encoding="UTF-8"?>
<routes>
    <vType id="car" accel="2.6" decel="4.5" sigma="0.5" length="5" minGap="2.5" maxSpeed="30"/>
    <vType id="ev" accel="3.0" decel="5.0" sigma="0.3" length="5" minGap="2.5" maxSpeed="30" color="0,255,0"/>
</routes>
